O=c1cc(-c2ccccc2)cc(-c2cnc3[nH]ccc3c2)n1O
  MOE2019           3D

 36 39  0  0  0  0  0  0  0  0999 V2000
   22.2810    1.0540    0.5010 O   0  0  0  0  0  0  0  0  0  0  0  0
   23.0370    1.0840   -0.4910 C   0  0  0  0  0  0  0  0  0  0  0  0
   23.5600   -0.0680   -1.1450 C   0  0  0  0  0  0  0  0  0  0  0  0
   23.3080   -1.0140   -0.7440 H   0  0  0  0  0  0  0  0  0  0  0  0
   24.3760    0.0330   -2.2470 C   0  0  0  0  0  0  0  0  0  0  0  0
   24.9160   -1.1690   -2.8810 C   0  0  0  0  0  0  0  0  0  0  0  0
   26.2560   -1.2430   -3.2830 C   0  0  0  0  0  0  0  0  0  0  0  0
   26.9020   -0.4160   -3.1380 H   0  0  0  0  0  0  0  0  0  0  0  0
   26.7540   -2.4050   -3.8640 C   0  0  0  0  0  0  0  0  0  0  0  0
   27.7690   -2.4570   -4.1600 H   0  0  0  0  0  0  0  0  0  0  0  0
   25.9260   -3.5050   -4.0570 C   0  0  0  0  0  0  0  0  0  0  0  0
   26.3120   -4.3880   -4.4980 H   0  0  0  0  0  0  0  0  0  0  0  0
   24.5950   -3.4450   -3.6620 C   0  0  0  0  0  0  0  0  0  0  0  0
   23.9630   -4.2840   -3.8010 H   0  0  0  0  0  0  0  0  0  0  0  0
   24.0970   -2.2860   -3.0790 C   0  0  0  0  0  0  0  0  0  0  0  0
   23.0860   -2.2510   -2.7710 H   0  0  0  0  0  0  0  0  0  0  0  0
   24.6820    1.3300   -2.7540 C   0  0  0  0  0  0  0  0  0  0  0  0
   25.2870    1.4130   -3.6200 H   0  0  0  0  0  0  0  0  0  0  0  0
   24.1980    2.4690   -2.1510 C   0  0  0  0  0  0  0  0  0  0  0  0
   24.4310    3.8210   -2.6370 C   0  0  0  0  0  0  0  0  0  0  0  0
   23.7850    4.2600   -3.8270 C   0  0  0  0  0  0  0  0  0  0  0  0
   23.1540    3.5870   -4.3490 H   0  0  0  0  0  0  0  0  0  0  0  0
   23.9220    5.4730   -4.3230 N   0  0  0  0  0  0  0  0  0  0  0  0
   24.7400    6.3080   -3.6430 C   0  0  0  0  0  0  0  0  0  0  0  0
   25.0720    7.6000   -3.9700 N   0  0  0  0  0  0  0  0  0  0  0  0
   24.7360    8.1040   -4.8100 H   0  0  0  0  0  0  0  0  0  0  0  0
   25.9410    8.0970   -3.0220 C   0  0  0  0  0  0  0  0  0  0  0  0
   26.3240    9.0830   -3.0850 H   0  0  0  0  0  0  0  0  0  0  0  0
   26.1630    7.1280   -2.0960 C   0  0  0  0  0  0  0  0  0  0  0  0
   26.7860    7.2190   -1.2460 H   0  0  0  0  0  0  0  0  0  0  0  0
   25.4200    5.9840   -2.4730 C   0  0  0  0  0  0  0  0  0  0  0  0
   25.2620    4.6990   -1.9510 C   0  0  0  0  0  0  0  0  0  0  0  0
   25.7550    4.4110   -1.0600 H   0  0  0  0  0  0  0  0  0  0  0  0
   23.4060    2.3190   -1.0110 N   0  0  0  0  0  0  0  0  0  0  0  0
   22.9320    3.4510   -0.3620 O   0  0  0  0  0  0  0  0  0  0  0  0
   22.4500    3.1200    0.4250 H   0  0  0  0  0  0  0  0  0  0  0  0
  1  2  2  0  0  0  0
  2  3  1  0  0  0  0
  2 34  1  0  0  0  0
  3  4  1  0  0  0  0
  3  5  2  0  0  0  0
  5  6  1  0  0  0  0
  5 17  1  0  0  0  0
  6  7  1  0  0  0  0
  6 15  2  0  0  0  0
  7  8  1  0  0  0  0
  7  9  2  0  0  0  0
  9 10  1  0  0  0  0
  9 11  1  0  0  0  0
 11 12  1  0  0  0  0
 11 13  2  0  0  0  0
 13 14  1  0  0  0  0
 13 15  1  0  0  0  0
 15 16  1  0  0  0  0
 17 18  1  0  0  0  0
 17 19  2  0  0  0  0
 19 20  1  0  0  0  0
 19 34  1  0  0  0  0
 20 21  1  0  0  0  0
 20 32  2  0  0  0  0
 21 22  1  0  0  0  0
 21 23  2  0  0  0  0
 23 24  1  0  0  0  0
 24 25  1  0  0  0  0
 24 31  2  0  0  0  0
 25 26  1  0  0  0  0
 25 27  1  0  0  0  0
 27 28  1  0  0  0  0
 27 29  2  0  0  0  0
 29 30  1  0  0  0  0
 29 31  1  0  0  0  0
 31 32  1  0  0  0  0
 32 33  1  0  0  0  0
 34 35  1  0  0  0  0
 35 36  1  0  0  0  0
M  END
>  <rseq>
1

>  <mseq>
10

>  <S>
-5.2827687

>  <rmsd_refine>
2.4210477

>  <E_conf>
70.769318

>  <E_place>
-66.351097

>  <E_score1>
-12.351835

>  <E_refine>
-23.453911

>  <E_score2>
-5.2827687

>  <Standard ValuenM>
280

>  <PLIF_pronum>
1

>  <PLIF_raw>
[[25,24,31,29,27,25],[4998,5018,5018,5018,5018,5018],[10149,10150,10150,10150,10150,10150],[3,10,10,10,10,10],[2.5,0.5,0.5,0.5,0.5,0.5]]

>  <FP:PLIF>
19 35 23

>  <PLIF_ligidx>
[25,25,[24,31,29,27,25]]

$$$$
