COCCCn1ccc2cc(-c3cc(-c4ccccc4)cc(=O)n3O)ccc21
  MOE2019           3D

 50 53  0  0  0  0  0  0  0  0999 V2000
   23.5260    4.6150   -4.3480 C   0  0  0  0  0  0  0  0  0  0  0  0
   23.2050    5.4360   -3.7080 H   0  0  0  0  0  0  0  0  0  0  0  0
   23.2170    4.8260   -5.3710 H   0  0  0  0  0  0  0  0  0  0  0  0
   24.6120    4.5320   -4.2980 H   0  0  0  0  0  0  0  0  0  0  0  0
   22.9300    3.4130   -3.8990 O   0  0  0  0  0  0  0  0  0  0  0  0
   23.2800    2.2950   -4.6990 C   0  0  0  0  0  0  0  0  0  0  0  0
   24.3640    2.2010   -4.7610 H   0  0  0  0  0  0  0  0  0  0  0  0
   22.8890    2.4350   -5.7080 H   0  0  0  0  0  0  0  0  0  0  0  0
   22.6740    1.0130   -4.1040 C   0  0  0  0  0  0  0  0  0  0  0  0
   22.9040    0.1610   -4.7450 H   0  0  0  0  0  0  0  0  0  0  0  0
   21.5910    1.1220   -4.0600 H   0  0  0  0  0  0  0  0  0  0  0  0
   23.2270    0.7950   -2.6720 C   0  0  0  0  0  0  0  0  0  0  0  0
   22.6070    0.0610   -2.1750 H   0  0  0  0  0  0  0  0  0  0  0  0
   23.2620    1.7270   -2.1260 H   0  0  0  0  0  0  0  0  0  0  0  0
   24.5770    0.2500   -2.8100 N   0  0  0  0  0  0  0  0  0  0  0  0
   25.7460    0.9830   -2.8490 C   0  0  0  0  0  0  0  0  0  0  0  0
   25.7490    2.0300   -2.6870 H   0  0  0  0  0  0  0  0  0  0  0  0
   26.7750    0.1410   -3.1220 C   0  0  0  0  0  0  0  0  0  0  0  0
   27.7930    0.4190   -3.2090 H   0  0  0  0  0  0  0  0  0  0  0  0
   26.2480   -1.1610   -3.2760 C   0  0  0  0  0  0  0  0  0  0  0  0
   26.7990   -2.4010   -3.6300 C   0  0  0  0  0  0  0  0  0  0  0  0
   27.8210   -2.4670   -3.8910 H   0  0  0  0  0  0  0  0  0  0  0  0
   25.9960   -3.5390   -3.6650 C   0  0  0  0  0  0  0  0  0  0  0  0
   26.6010   -4.8110   -4.0370 C   0  0  0  0  0  0  0  0  0  0  0  0
   27.6250   -5.4020   -3.3350 C   0  0  0  0  0  0  0  0  0  0  0  0
   27.9370   -4.9750   -2.4210 H   0  0  0  0  0  0  0  0  0  0  0  0
   28.2940   -6.5650   -3.8120 C   0  0  0  0  0  0  0  0  0  0  0  0
   29.3970   -7.1560   -3.0530 C   0  0  0  0  0  0  0  0  0  0  0  0
   30.2820   -6.3440   -2.3320 C   0  0  0  0  0  0  0  0  0  0  0  0
   30.1620   -5.2920   -2.3300 H   0  0  0  0  0  0  0  0  0  0  0  0
   31.3390   -6.9010   -1.6260 C   0  0  0  0  0  0  0  0  0  0  0  0
   31.9970   -6.2730   -1.0850 H   0  0  0  0  0  0  0  0  0  0  0  0
   31.5420   -8.2760   -1.6380 C   0  0  0  0  0  0  0  0  0  0  0  0
   32.3550   -8.6980   -1.1060 H   0  0  0  0  0  0  0  0  0  0  0  0
   30.6740   -9.0970   -2.3490 C   0  0  0  0  0  0  0  0  0  0  0  0
   30.8310  -10.1440   -2.3600 H   0  0  0  0  0  0  0  0  0  0  0  0
   29.6030   -8.5440   -3.0420 C   0  0  0  0  0  0  0  0  0  0  0  0
   28.9420   -9.1850   -3.5660 H   0  0  0  0  0  0  0  0  0  0  0  0
   27.8960   -7.0970   -5.0130 C   0  0  0  0  0  0  0  0  0  0  0  0
   28.3920   -7.9330   -5.4270 H   0  0  0  0  0  0  0  0  0  0  0  0
   26.8120   -6.5470   -5.7500 C   0  0  0  0  0  0  0  0  0  0  0  0
   26.4150   -6.9900   -6.8430 O   0  0  0  0  0  0  0  0  0  0  0  0
   26.1630   -5.4440   -5.2010 N   0  0  0  0  0  0  0  0  0  0  0  0
   25.0270   -4.9650   -5.8390 O   0  0  0  0  0  0  0  0  0  0  0  0
   24.7570   -4.1720   -5.3310 H   0  0  0  0  0  0  0  0  0  0  0  0
   24.6160   -3.4350   -3.3370 C   0  0  0  0  0  0  0  0  0  0  0  0
   24.0130   -4.3070   -3.3290 H   0  0  0  0  0  0  0  0  0  0  0  0
   24.0540   -2.2110   -3.0280 C   0  0  0  0  0  0  0  0  0  0  0  0
   23.0320   -2.1230   -2.7750 H   0  0  0  0  0  0  0  0  0  0  0  0
   24.8840   -1.0820   -3.0320 C   0  0  0  0  0  0  0  0  0  0  0  0
  1  2  1  0  0  0  0
  1  3  1  0  0  0  0
  1  4  1  0  0  0  0
  1  5  1  0  0  0  0
  5  6  1  0  0  0  0
  6  7  1  0  0  0  0
  6  8  1  0  0  0  0
  6  9  1  0  0  0  0
  9 10  1  0  0  0  0
  9 11  1  0  0  0  0
  9 12  1  0  0  0  0
 12 13  1  0  0  0  0
 12 14  1  0  0  0  0
 12 15  1  0  0  0  0
 15 16  1  0  0  0  0
 15 50  1  0  0  0  0
 16 17  1  0  0  0  0
 16 18  2  0  0  0  0
 18 19  1  0  0  0  0
 18 20  1  0  0  0  0
 20 21  1  0  0  0  0
 20 50  2  0  0  0  0
 21 22  1  0  0  0  0
 21 23  2  0  0  0  0
 23 24  1  0  0  0  0
 23 46  1  0  0  0  0
 24 25  2  0  0  0  0
 24 43  1  0  0  0  0
 25 26  1  0  0  0  0
 25 27  1  0  0  0  0
 27 28  1  0  0  0  0
 27 39  2  0  0  0  0
 28 29  1  0  0  0  0
 28 37  2  0  0  0  0
 29 30  1  0  0  0  0
 29 31  2  0  0  0  0
 31 32  1  0  0  0  0
 31 33  1  0  0  0  0
 33 34  1  0  0  0  0
 33 35  2  0  0  0  0
 35 36  1  0  0  0  0
 35 37  1  0  0  0  0
 37 38  1  0  0  0  0
 39 40  1  0  0  0  0
 39 41  1  0  0  0  0
 41 42  2  0  0  0  0
 41 43  1  0  0  0  0
 43 44  1  0  0  0  0
 44 45  1  0  0  0  0
 46 47  1  0  0  0  0
 46 48  2  0  0  0  0
 48 49  1  0  0  0  0
 48 50  1  0  0  0  0
M  END
>  <rseq>
1

>  <mseq>
11

>  <S>
-10.652529

>  <rmsd_refine>
1.5009813

>  <E_conf>
60.174618

>  <E_place>
-91.940727

>  <E_score1>
-13.700303

>  <E_refine>
-82.046562

>  <E_score2>
-10.652529

>  <Standard ValuenM>
300

>  <PLIF_pronum>
1

>  <PLIF_raw>
[[42,5,42,28,37,35,33,31,29,15,50,20,18,16],[5555,6925,355,852,852,852,852,852,852,6565,6565,6565,6565,6565],[20201,221182,33,62,62,62,62,62,62,221061,221061,221061,221061,221061],[9,6,2,10,10,10,10,10,10,10,10,10,10,10],[4.370400557,1.5,1.4,0.6,0.6,0.6,0.6,0.6,0.6,0.6,0.6,0.6,0.6,0.6]]

>  <FP:PLIF>
1 2 3 4 6 12 13

>  <PLIF_ligidx>
[42,[28,37,35,33,31,29],42,42,[15,50,20,18,16],5,5]

$$$$
