COCCCn1ccc2cc(-c3cc(-c4ccccc4)cc(=O)n3O)ccc21
  MOE2019           3D

 50 53  0  0  0  0  0  0  0  0999 V2000
   19.7030    0.4790    0.4260 C   0  0  0  0  0  0  0  0  0  0  0  0
   18.8980   -0.1880    0.1180 H   0  0  0  0  0  0  0  0  0  0  0  0
   19.3940    1.5110    0.2590 H   0  0  0  0  0  0  0  0  0  0  0  0
   19.8980    0.3230    1.4880 H   0  0  0  0  0  0  0  0  0  0  0  0
   20.8660    0.1880   -0.3310 O   0  0  0  0  0  0  0  0  0  0  0  0
   21.9620    0.9980    0.0530 C   0  0  0  0  0  0  0  0  0  0  0  0
   22.0980    0.9290    1.1340 H   0  0  0  0  0  0  0  0  0  0  0  0
   21.7780    2.0390   -0.2090 H   0  0  0  0  0  0  0  0  0  0  0  0
   23.2480    0.5070   -0.6140 C   0  0  0  0  0  0  0  0  0  0  0  0
   23.3720   -0.5570   -0.4160 H   0  0  0  0  0  0  0  0  0  0  0  0
   24.0820    1.0670   -0.1940 H   0  0  0  0  0  0  0  0  0  0  0  0
   23.1730    0.7450   -2.1330 C   0  0  0  0  0  0  0  0  0  0  0  0
   23.0840    1.8040   -2.3290 H   0  0  0  0  0  0  0  0  0  0  0  0
   22.3680    0.1610   -2.5580 H   0  0  0  0  0  0  0  0  0  0  0  0
   24.4590    0.2650   -2.6470 N   0  0  0  0  0  0  0  0  0  0  0  0
   25.5970    1.0370   -2.7720 C   0  0  0  0  0  0  0  0  0  0  0  0
   25.5870    2.0770   -2.5730 H   0  0  0  0  0  0  0  0  0  0  0  0
   26.6260    0.2350   -3.1470 C   0  0  0  0  0  0  0  0  0  0  0  0
   27.6250    0.5480   -3.3050 H   0  0  0  0  0  0  0  0  0  0  0  0
   26.1320   -1.0830   -3.2830 C   0  0  0  0  0  0  0  0  0  0  0  0
   26.7100   -2.3060   -3.6580 C   0  0  0  0  0  0  0  0  0  0  0  0
   27.7300   -2.3410   -3.9390 H   0  0  0  0  0  0  0  0  0  0  0  0
   25.9410   -3.4690   -3.6690 C   0  0  0  0  0  0  0  0  0  0  0  0
   26.5680   -4.7330   -4.0440 C   0  0  0  0  0  0  0  0  0  0  0  0
   27.6010   -5.3120   -3.3420 C   0  0  0  0  0  0  0  0  0  0  0  0
   27.9130   -4.8770   -2.4340 H   0  0  0  0  0  0  0  0  0  0  0  0
   28.2740   -6.4790   -3.8070 C   0  0  0  0  0  0  0  0  0  0  0  0
   29.3750   -7.0700   -3.0450 C   0  0  0  0  0  0  0  0  0  0  0  0
   30.2640   -6.2590   -2.3260 C   0  0  0  0  0  0  0  0  0  0  0  0
   30.1450   -5.2070   -2.3260 H   0  0  0  0  0  0  0  0  0  0  0  0
   31.3210   -6.8180   -1.6210 C   0  0  0  0  0  0  0  0  0  0  0  0
   31.9820   -6.1930   -1.0830 H   0  0  0  0  0  0  0  0  0  0  0  0
   31.5190   -8.1940   -1.6310 C   0  0  0  0  0  0  0  0  0  0  0  0
   32.3330   -8.6180   -1.1000 H   0  0  0  0  0  0  0  0  0  0  0  0
   30.6470   -9.0130   -2.3380 C   0  0  0  0  0  0  0  0  0  0  0  0
   30.8010  -10.0620   -2.3470 H   0  0  0  0  0  0  0  0  0  0  0  0
   29.5770   -8.4590   -3.0300 C   0  0  0  0  0  0  0  0  0  0  0  0
   28.9130   -9.0990   -3.5520 H   0  0  0  0  0  0  0  0  0  0  0  0
   27.8770   -7.0250   -5.0020 C   0  0  0  0  0  0  0  0  0  0  0  0
   28.3780   -7.8620   -5.4100 H   0  0  0  0  0  0  0  0  0  0  0  0
   26.7880   -6.4880   -5.7400 C   0  0  0  0  0  0  0  0  0  0  0  0
   26.3920   -6.9500   -6.8250 O   0  0  0  0  0  0  0  0  0  0  0  0
   26.1340   -5.3810   -5.2010 N   0  0  0  0  0  0  0  0  0  0  0  0
   24.9920   -4.9170   -5.8410 O   0  0  0  0  0  0  0  0  0  0  0  0
   24.7130   -4.1240   -5.3370 H   0  0  0  0  0  0  0  0  0  0  0  0
   24.5670   -3.4020   -3.3040 C   0  0  0  0  0  0  0  0  0  0  0  0
   23.9860   -4.2890   -3.2930 H   0  0  0  0  0  0  0  0  0  0  0  0
   23.9840   -2.1980   -2.9520 C   0  0  0  0  0  0  0  0  0  0  0  0
   22.9670   -2.1410   -2.6650 H   0  0  0  0  0  0  0  0  0  0  0  0
   24.7820   -1.0480   -2.9560 C   0  0  0  0  0  0  0  0  0  0  0  0
  1  2  1  0  0  0  0
  1  3  1  0  0  0  0
  1  4  1  0  0  0  0
  1  5  1  0  0  0  0
  5  6  1  0  0  0  0
  6  7  1  0  0  0  0
  6  8  1  0  0  0  0
  6  9  1  0  0  0  0
  9 10  1  0  0  0  0
  9 11  1  0  0  0  0
  9 12  1  0  0  0  0
 12 13  1  0  0  0  0
 12 14  1  0  0  0  0
 12 15  1  0  0  0  0
 15 16  1  0  0  0  0
 15 50  1  0  0  0  0
 16 17  1  0  0  0  0
 16 18  2  0  0  0  0
 18 19  1  0  0  0  0
 18 20  1  0  0  0  0
 20 21  1  0  0  0  0
 20 50  2  0  0  0  0
 21 22  1  0  0  0  0
 21 23  2  0  0  0  0
 23 24  1  0  0  0  0
 23 46  1  0  0  0  0
 24 25  2  0  0  0  0
 24 43  1  0  0  0  0
 25 26  1  0  0  0  0
 25 27  1  0  0  0  0
 27 28  1  0  0  0  0
 27 39  2  0  0  0  0
 28 29  1  0  0  0  0
 28 37  2  0  0  0  0
 29 30  1  0  0  0  0
 29 31  2  0  0  0  0
 31 32  1  0  0  0  0
 31 33  1  0  0  0  0
 33 34  1  0  0  0  0
 33 35  2  0  0  0  0
 35 36  1  0  0  0  0
 35 37  1  0  0  0  0
 37 38  1  0  0  0  0
 39 40  1  0  0  0  0
 39 41  1  0  0  0  0
 41 42  2  0  0  0  0
 41 43  1  0  0  0  0
 43 44  1  0  0  0  0
 44 45  1  0  0  0  0
 46 47  1  0  0  0  0
 46 48  2  0  0  0  0
 48 49  1  0  0  0  0
 48 50  1  0  0  0  0
M  END
>  <rseq>
1

>  <mseq>
11

>  <S>
-10.167402

>  <rmsd_refine>
1.3551313

>  <E_conf>
58.769516

>  <E_place>
-55.877708

>  <E_score1>
-13.2448

>  <E_refine>
-75.488548

>  <E_score2>
-10.167402

>  <Standard ValuenM>
300

>  <PLIF_pronum>
1

>  <PLIF_raw>
[[42,42,28,37,35,33,31,29],[5555,355,852,852,852,852,852,852],[20201,33,62,62,62,62,62,62],[9,2,10,10,10,10,10,10],[4.414387959,1.3,0.6,0.6,0.6,0.6,0.6,0.6]]

>  <FP:PLIF>
1 2 3 4

>  <PLIF_ligidx>
[42,[28,37,35,33,31,29],42,42]

$$$$
