CCCCn1ccc2cc(-c3cc(-c4ccccc4)cc(=O)n3O)cnc21
  MOE2019           3D

 48 51  0  0  0  0  0  0  0  0999 V2000
   21.5830    0.7580    1.4020 C   0  0  0  0  0  0  0  0  0  0  0  0
   21.5440   -0.2980    1.6600 H   0  0  0  0  0  0  0  0  0  0  0  0
   20.6640    1.2340    1.7480 H   0  0  0  0  0  0  0  0  0  0  0  0
   22.4330    1.2260    1.8990 H   0  0  0  0  0  0  0  0  0  0  0  0
   21.7020    0.9240   -0.1140 C   0  0  0  0  0  0  0  0  0  0  0  0
   21.6840    1.9910   -0.3280 H   0  0  0  0  0  0  0  0  0  0  0  0
   20.8470    0.4420   -0.5870 H   0  0  0  0  0  0  0  0  0  0  0  0
   23.0060    0.3290   -0.6640 C   0  0  0  0  0  0  0  0  0  0  0  0
   23.0690   -0.7320   -0.4230 H   0  0  0  0  0  0  0  0  0  0  0  0
   23.8520    0.8620   -0.2300 H   0  0  0  0  0  0  0  0  0  0  0  0
   22.9930    0.5050   -2.1960 C   0  0  0  0  0  0  0  0  0  0  0  0
   22.8650    1.5500   -2.4390 H   0  0  0  0  0  0  0  0  0  0  0  0
   22.2290   -0.1290   -2.6280 H   0  0  0  0  0  0  0  0  0  0  0  0
   24.3120    0.0760   -2.6570 N   0  0  0  0  0  0  0  0  0  0  0  0
   25.4210    0.8990   -2.7380 C   0  0  0  0  0  0  0  0  0  0  0  0
   25.3600    1.9350   -2.5210 H   0  0  0  0  0  0  0  0  0  0  0  0
   26.4920    0.1500   -3.1050 C   0  0  0  0  0  0  0  0  0  0  0  0
   27.4810    0.5070   -3.2380 H   0  0  0  0  0  0  0  0  0  0  0  0
   26.0550   -1.1830   -3.2740 C   0  0  0  0  0  0  0  0  0  0  0  0
   26.6800   -2.3740   -3.6440 C   0  0  0  0  0  0  0  0  0  0  0  0
   27.7070   -2.3920   -3.8960 H   0  0  0  0  0  0  0  0  0  0  0  0
   25.9120   -3.5300   -3.6820 C   0  0  0  0  0  0  0  0  0  0  0  0
   26.5460   -4.7900   -4.0500 C   0  0  0  0  0  0  0  0  0  0  0  0
   27.5780   -5.3620   -3.3430 C   0  0  0  0  0  0  0  0  0  0  0  0
   27.8820   -4.9290   -2.4300 H   0  0  0  0  0  0  0  0  0  0  0  0
   28.2650   -6.5200   -3.8120 C   0  0  0  0  0  0  0  0  0  0  0  0
   29.3700   -7.1010   -3.0480 C   0  0  0  0  0  0  0  0  0  0  0  0
   30.2530   -6.2830   -2.3310 C   0  0  0  0  0  0  0  0  0  0  0  0
   30.1260   -5.2320   -2.3320 H   0  0  0  0  0  0  0  0  0  0  0  0
   31.3140   -6.8330   -1.6250 C   0  0  0  0  0  0  0  0  0  0  0  0
   31.9710   -6.2020   -1.0880 H   0  0  0  0  0  0  0  0  0  0  0  0
   31.5220   -8.2080   -1.6320 C   0  0  0  0  0  0  0  0  0  0  0  0
   32.3380   -8.6240   -1.1000 H   0  0  0  0  0  0  0  0  0  0  0  0
   30.6550   -9.0340   -2.3370 C   0  0  0  0  0  0  0  0  0  0  0  0
   30.8160  -10.0810   -2.3440 H   0  0  0  0  0  0  0  0  0  0  0  0
   29.5810   -8.4890   -3.0300 C   0  0  0  0  0  0  0  0  0  0  0  0
   28.9220   -9.1340   -3.5510 H   0  0  0  0  0  0  0  0  0  0  0  0
   27.8800   -7.0620   -5.0120 C   0  0  0  0  0  0  0  0  0  0  0  0
   28.3890   -7.8930   -5.4210 H   0  0  0  0  0  0  0  0  0  0  0  0
   26.7920   -6.5290   -5.7550 C   0  0  0  0  0  0  0  0  0  0  0  0
   26.4080   -6.9830   -6.8480 O   0  0  0  0  0  0  0  0  0  0  0  0
   26.1250   -5.4330   -5.2140 N   0  0  0  0  0  0  0  0  0  0  0  0
   24.9880   -4.9700   -5.8630 O   0  0  0  0  0  0  0  0  0  0  0  0
   24.7340   -4.1400   -5.4090 H   0  0  0  0  0  0  0  0  0  0  0  0
   24.5260   -3.4490   -3.3600 C   0  0  0  0  0  0  0  0  0  0  0  0
   23.9390   -4.3320   -3.3800 H   0  0  0  0  0  0  0  0  0  0  0  0
   23.9230   -2.3200   -3.0360 N   0  0  0  0  0  0  0  0  0  0  0  0
   24.6940   -1.2090   -2.9910 C   0  0  0  0  0  0  0  0  0  0  0  0
  1  2  1  0  0  0  0
  1  3  1  0  0  0  0
  1  4  1  0  0  0  0
  1  5  1  0  0  0  0
  5  6  1  0  0  0  0
  5  7  1  0  0  0  0
  5  8  1  0  0  0  0
  8  9  1  0  0  0  0
  8 10  1  0  0  0  0
  8 11  1  0  0  0  0
 11 12  1  0  0  0  0
 11 13  1  0  0  0  0
 11 14  1  0  0  0  0
 14 15  1  0  0  0  0
 14 48  1  0  0  0  0
 15 16  1  0  0  0  0
 15 17  2  0  0  0  0
 17 18  1  0  0  0  0
 17 19  1  0  0  0  0
 19 20  1  0  0  0  0
 19 48  2  0  0  0  0
 20 21  1  0  0  0  0
 20 22  2  0  0  0  0
 22 23  1  0  0  0  0
 22 45  1  0  0  0  0
 23 24  2  0  0  0  0
 23 42  1  0  0  0  0
 24 25  1  0  0  0  0
 24 26  1  0  0  0  0
 26 27  1  0  0  0  0
 26 38  2  0  0  0  0
 27 28  1  0  0  0  0
 27 36  2  0  0  0  0
 28 29  1  0  0  0  0
 28 30  2  0  0  0  0
 30 31  1  0  0  0  0
 30 32  1  0  0  0  0
 32 33  1  0  0  0  0
 32 34  2  0  0  0  0
 34 35  1  0  0  0  0
 34 36  1  0  0  0  0
 36 37  1  0  0  0  0
 38 39  1  0  0  0  0
 38 40  1  0  0  0  0
 40 41  2  0  0  0  0
 40 42  1  0  0  0  0
 42 43  1  0  0  0  0
 43 44  1  0  0  0  0
 45 46  1  0  0  0  0
 45 47  2  0  0  0  0
 47 48  1  0  0  0  0
M  END
>  <rseq>
1

>  <mseq>
12

>  <S>
-10.262346

>  <rmsd_refine>
1.1554359

>  <E_conf>
82.109016

>  <E_place>
-61.392792

>  <E_score1>
-12.635459

>  <E_refine>
-77.348389

>  <E_score2>
-10.262346

>  <Standard ValuenM>
300

>  <PLIF_pronum>
1

>  <PLIF_raw>
[[41,41,27,36,34,32,30,28,14,48,19,17,15],[5555,355,852,852,852,852,852,852,6565,6565,6565,6565,6565],[20201,33,62,62,62,62,62,62,221061,221061,221061,221061,221061],[9,2,10,10,10,10,10,10,10,10,10,10,10],[4.377262672,1.4,0.6,0.6,0.6,0.6,0.6,0.6,0.6,0.6,0.6,0.6,0.6]]

>  <FP:PLIF>
1 2 3 4 6

>  <PLIF_ligidx>
[41,[27,36,34,32,30,28],41,41,[14,48,19,17,15]]

$$$$
