CCCCn1ccc2cc(-c3cc(-c4ccccc4)cc(=O)n3O)cnc21
  MOE2019           3D

 48 51  0  0  0  0  0  0  0  0999 V2000
   23.6330    4.2420   -4.2650 C   0  0  0  0  0  0  0  0  0  0  0  0
   23.5600    4.4180   -5.3370 H   0  0  0  0  0  0  0  0  0  0  0  0
   24.5410    4.7160   -3.8880 H   0  0  0  0  0  0  0  0  0  0  0  0
   22.7640    4.6830   -3.7740 H   0  0  0  0  0  0  0  0  0  0  0  0
   23.6810    2.7360   -4.0000 C   0  0  0  0  0  0  0  0  0  0  0  0
   24.5430    2.3210   -4.5240 H   0  0  0  0  0  0  0  0  0  0  0  0
   22.7760    2.2770   -4.4030 H   0  0  0  0  0  0  0  0  0  0  0  0
   23.7850    2.4500   -2.4900 C   0  0  0  0  0  0  0  0  0  0  0  0
   22.9360    2.8840   -1.9740 H   0  0  0  0  0  0  0  0  0  0  0  0
   24.6670    2.9200   -2.0600 H   0  0  0  0  0  0  0  0  0  0  0  0
   23.7630    0.9170   -2.2680 C   0  0  0  0  0  0  0  0  0  0  0  0
   22.9390    0.4870   -2.8220 H   0  0  0  0  0  0  0  0  0  0  0  0
   23.6750    0.7300   -1.2070 H   0  0  0  0  0  0  0  0  0  0  0  0
   25.0250    0.3170   -2.7290 N   0  0  0  0  0  0  0  0  0  0  0  0
   26.2720    0.9310   -2.7750 C   0  0  0  0  0  0  0  0  0  0  0  0
   26.4220    1.9510   -2.5410 H   0  0  0  0  0  0  0  0  0  0  0  0
   27.1980    0.0090   -3.1200 C   0  0  0  0  0  0  0  0  0  0  0  0
   28.2380    0.1840   -3.1960 H   0  0  0  0  0  0  0  0  0  0  0  0
   26.5370   -1.2180   -3.3220 C   0  0  0  0  0  0  0  0  0  0  0  0
   26.9680   -2.4830   -3.7030 C   0  0  0  0  0  0  0  0  0  0  0  0
   27.9740   -2.6530   -3.9800 H   0  0  0  0  0  0  0  0  0  0  0  0
   26.0490   -3.5160   -3.7100 C   0  0  0  0  0  0  0  0  0  0  0  0
   26.5580   -4.8400   -4.0370 C   0  0  0  0  0  0  0  0  0  0  0  0
   27.5550   -5.4550   -3.3150 C   0  0  0  0  0  0  0  0  0  0  0  0
   27.8620   -5.0340   -2.3960 H   0  0  0  0  0  0  0  0  0  0  0  0
   28.2300   -6.6130   -3.7950 C   0  0  0  0  0  0  0  0  0  0  0  0
   29.3440   -7.1960   -3.0450 C   0  0  0  0  0  0  0  0  0  0  0  0
   30.2330   -6.3750   -2.3370 C   0  0  0  0  0  0  0  0  0  0  0  0
   30.1020   -5.3240   -2.3340 H   0  0  0  0  0  0  0  0  0  0  0  0
   31.3060   -6.9210   -1.6470 C   0  0  0  0  0  0  0  0  0  0  0  0
   31.9670   -6.2880   -1.1160 H   0  0  0  0  0  0  0  0  0  0  0  0
   31.5210   -8.2950   -1.6620 C   0  0  0  0  0  0  0  0  0  0  0  0
   32.3460   -8.7090   -1.1420 H   0  0  0  0  0  0  0  0  0  0  0  0
   30.6490   -9.1230   -2.3600 C   0  0  0  0  0  0  0  0  0  0  0  0
   30.8160  -10.1690   -2.3730 H   0  0  0  0  0  0  0  0  0  0  0  0
   29.5630   -8.5810   -3.0360 C   0  0  0  0  0  0  0  0  0  0  0  0
   28.9010   -9.2270   -3.5530 H   0  0  0  0  0  0  0  0  0  0  0  0
   27.8430   -7.1340   -5.0030 C   0  0  0  0  0  0  0  0  0  0  0  0
   28.3450   -7.9640   -5.4220 H   0  0  0  0  0  0  0  0  0  0  0  0
   26.7690   -6.5720   -5.7470 C   0  0  0  0  0  0  0  0  0  0  0  0
   26.3910   -7.0010   -6.8510 O   0  0  0  0  0  0  0  0  0  0  0  0
   26.1180   -5.4690   -5.1990 N   0  0  0  0  0  0  0  0  0  0  0  0
   24.9930   -4.9730   -5.8430 O   0  0  0  0  0  0  0  0  0  0  0  0
   24.7680   -4.1330   -5.3920 H   0  0  0  0  0  0  0  0  0  0  0  0
   24.6900   -3.2310   -3.3870 C   0  0  0  0  0  0  0  0  0  0  0  0
   23.9810   -4.0200   -3.3900 H   0  0  0  0  0  0  0  0  0  0  0  0
   24.2590   -2.0150   -3.0760 N   0  0  0  0  0  0  0  0  0  0  0  0
   25.1890   -1.0240   -3.0490 C   0  0  0  0  0  0  0  0  0  0  0  0
  1  2  1  0  0  0  0
  1  3  1  0  0  0  0
  1  4  1  0  0  0  0
  1  5  1  0  0  0  0
  5  6  1  0  0  0  0
  5  7  1  0  0  0  0
  5  8  1  0  0  0  0
  8  9  1  0  0  0  0
  8 10  1  0  0  0  0
  8 11  1  0  0  0  0
 11 12  1  0  0  0  0
 11 13  1  0  0  0  0
 11 14  1  0  0  0  0
 14 15  1  0  0  0  0
 14 48  1  0  0  0  0
 15 16  1  0  0  0  0
 15 17  2  0  0  0  0
 17 18  1  0  0  0  0
 17 19  1  0  0  0  0
 19 20  1  0  0  0  0
 19 48  2  0  0  0  0
 20 21  1  0  0  0  0
 20 22  2  0  0  0  0
 22 23  1  0  0  0  0
 22 45  1  0  0  0  0
 23 24  2  0  0  0  0
 23 42  1  0  0  0  0
 24 25  1  0  0  0  0
 24 26  1  0  0  0  0
 26 27  1  0  0  0  0
 26 38  2  0  0  0  0
 27 28  1  0  0  0  0
 27 36  2  0  0  0  0
 28 29  1  0  0  0  0
 28 30  2  0  0  0  0
 30 31  1  0  0  0  0
 30 32  1  0  0  0  0
 32 33  1  0  0  0  0
 32 34  2  0  0  0  0
 34 35  1  0  0  0  0
 34 36  1  0  0  0  0
 36 37  1  0  0  0  0
 38 39  1  0  0  0  0
 38 40  1  0  0  0  0
 40 41  2  0  0  0  0
 40 42  1  0  0  0  0
 42 43  1  0  0  0  0
 43 44  1  0  0  0  0
 45 46  1  0  0  0  0
 45 47  2  0  0  0  0
 47 48  1  0  0  0  0
M  END
>  <rseq>
1

>  <mseq>
12

>  <S>
-10.219887

>  <rmsd_refine>
0.99382597

>  <E_conf>
87.729416

>  <E_place>
-101.35584

>  <E_score1>
-12.732001

>  <E_refine>
-76.679855

>  <E_score2>
-10.219887

>  <Standard ValuenM>
300

>  <PLIF_pronum>
1

>  <PLIF_raw>
[[41,41,27,36,34,32,30,28,14,48,19,17,15],[5555,355,852,852,852,852,852,852,5209,5209,5209,5209,5209],[20201,33,62,62,62,62,62,62,10162,10162,10162,10162,10162],[9,2,10,10,10,10,10,10,10,10,10,10,10],[4.396080156,1.4,0.5,0.5,0.5,0.5,0.5,0.5,0.5,0.5,0.5,0.5,0.5]]

>  <FP:PLIF>
1 2 8 3 4

>  <PLIF_ligidx>
[41,[27,36,34,32,30,28],[14,48,19,17,15],41,41]

$$$$
