CCCCn1ccc2cc(-c3cc(-c4ccccc4)cc(=O)n3O)cnc21
  MOE2019           3D

 48 51  0  0  0  0  0  0  0  0999 V2000
   22.4300    1.7720    0.9370 C   0  0  0  0  0  0  0  0  0  0  0  0
   22.9380    2.5770    1.4690 H   0  0  0  0  0  0  0  0  0  0  0  0
   21.3780    2.0330    0.8180 H   0  0  0  0  0  0  0  0  0  0  0  0
   22.5030    0.8560    1.5220 H   0  0  0  0  0  0  0  0  0  0  0  0
   23.0780    1.5780   -0.4380 C   0  0  0  0  0  0  0  0  0  0  0  0
   24.1450    1.4090   -0.3060 H   0  0  0  0  0  0  0  0  0  0  0  0
   22.9380    2.4940   -1.0130 H   0  0  0  0  0  0  0  0  0  0  0  0
   22.4490    0.3820   -1.1760 C   0  0  0  0  0  0  0  0  0  0  0  0
   21.3640    0.4410   -1.0930 H   0  0  0  0  0  0  0  0  0  0  0  0
   22.7830   -0.5590   -0.7350 H   0  0  0  0  0  0  0  0  0  0  0  0
   22.8220    0.4550   -2.6730 C   0  0  0  0  0  0  0  0  0  0  0  0
   22.7100    1.4660   -3.0390 H   0  0  0  0  0  0  0  0  0  0  0  0
   22.1900   -0.2390   -3.2110 H   0  0  0  0  0  0  0  0  0  0  0  0
   24.2140    0.0320   -2.8300 N   0  0  0  0  0  0  0  0  0  0  0  0
   25.3190    0.8650   -2.8400 C   0  0  0  0  0  0  0  0  0  0  0  0
   25.2300    1.9090   -2.6770 H   0  0  0  0  0  0  0  0  0  0  0  0
   26.4240    0.1160   -3.0890 C   0  0  0  0  0  0  0  0  0  0  0  0
   27.4170    0.4790   -3.1570 H   0  0  0  0  0  0  0  0  0  0  0  0
   26.0130   -1.2260   -3.2560 C   0  0  0  0  0  0  0  0  0  0  0  0
   26.6630   -2.4150   -3.5860 C   0  0  0  0  0  0  0  0  0  0  0  0
   27.7000   -2.4260   -3.7980 H   0  0  0  0  0  0  0  0  0  0  0  0
   25.9050   -3.5750   -3.6620 C   0  0  0  0  0  0  0  0  0  0  0  0
   26.5510   -4.8260   -4.0370 C   0  0  0  0  0  0  0  0  0  0  0  0
   27.5830   -5.3990   -3.3310 C   0  0  0  0  0  0  0  0  0  0  0  0
   27.8820   -4.9710   -2.4120 H   0  0  0  0  0  0  0  0  0  0  0  0
   28.2760   -6.5490   -3.8080 C   0  0  0  0  0  0  0  0  0  0  0  0
   29.3820   -7.1290   -3.0450 C   0  0  0  0  0  0  0  0  0  0  0  0
   30.2620   -6.3090   -2.3270 C   0  0  0  0  0  0  0  0  0  0  0  0
   30.1320   -5.2580   -2.3280 H   0  0  0  0  0  0  0  0  0  0  0  0
   31.3230   -6.8570   -1.6200 C   0  0  0  0  0  0  0  0  0  0  0  0
   31.9780   -6.2240   -1.0820 H   0  0  0  0  0  0  0  0  0  0  0  0
   31.5350   -8.2310   -1.6280 C   0  0  0  0  0  0  0  0  0  0  0  0
   32.3510   -8.6460   -1.0950 H   0  0  0  0  0  0  0  0  0  0  0  0
   30.6720   -9.0590   -2.3360 C   0  0  0  0  0  0  0  0  0  0  0  0
   30.8350  -10.1060   -2.3430 H   0  0  0  0  0  0  0  0  0  0  0  0
   29.5970   -8.5160   -3.0300 C   0  0  0  0  0  0  0  0  0  0  0  0
   28.9400   -9.1620   -3.5520 H   0  0  0  0  0  0  0  0  0  0  0  0
   27.8950   -7.0850   -5.0130 C   0  0  0  0  0  0  0  0  0  0  0  0
   28.4070   -7.9120   -5.4260 H   0  0  0  0  0  0  0  0  0  0  0  0
   26.8070   -6.5510   -5.7560 C   0  0  0  0  0  0  0  0  0  0  0  0
   26.4240   -6.9980   -6.8530 O   0  0  0  0  0  0  0  0  0  0  0  0
   26.1380   -5.4590   -5.2100 N   0  0  0  0  0  0  0  0  0  0  0  0
   25.0070   -4.9910   -5.8660 O   0  0  0  0  0  0  0  0  0  0  0  0
   24.7520   -4.1620   -5.4120 H   0  0  0  0  0  0  0  0  0  0  0  0
   24.5070   -3.5060   -3.3920 C   0  0  0  0  0  0  0  0  0  0  0  0
   23.9300   -4.3950   -3.4210 H   0  0  0  0  0  0  0  0  0  0  0  0
   23.8800   -2.3790   -3.1210 N   0  0  0  0  0  0  0  0  0  0  0  0
   24.6370   -1.2590   -3.0670 C   0  0  0  0  0  0  0  0  0  0  0  0
  1  2  1  0  0  0  0
  1  3  1  0  0  0  0
  1  4  1  0  0  0  0
  1  5  1  0  0  0  0
  5  6  1  0  0  0  0
  5  7  1  0  0  0  0
  5  8  1  0  0  0  0
  8  9  1  0  0  0  0
  8 10  1  0  0  0  0
  8 11  1  0  0  0  0
 11 12  1  0  0  0  0
 11 13  1  0  0  0  0
 11 14  1  0  0  0  0
 14 15  1  0  0  0  0
 14 48  1  0  0  0  0
 15 16  1  0  0  0  0
 15 17  2  0  0  0  0
 17 18  1  0  0  0  0
 17 19  1  0  0  0  0
 19 20  1  0  0  0  0
 19 48  2  0  0  0  0
 20 21  1  0  0  0  0
 20 22  2  0  0  0  0
 22 23  1  0  0  0  0
 22 45  1  0  0  0  0
 23 24  2  0  0  0  0
 23 42  1  0  0  0  0
 24 25  1  0  0  0  0
 24 26  1  0  0  0  0
 26 27  1  0  0  0  0
 26 38  2  0  0  0  0
 27 28  1  0  0  0  0
 27 36  2  0  0  0  0
 28 29  1  0  0  0  0
 28 30  2  0  0  0  0
 30 31  1  0  0  0  0
 30 32  1  0  0  0  0
 32 33  1  0  0  0  0
 32 34  2  0  0  0  0
 34 35  1  0  0  0  0
 34 36  1  0  0  0  0
 36 37  1  0  0  0  0
 38 39  1  0  0  0  0
 38 40  1  0  0  0  0
 40 41  2  0  0  0  0
 40 42  1  0  0  0  0
 42 43  1  0  0  0  0
 43 44  1  0  0  0  0
 45 46  1  0  0  0  0
 45 47  2  0  0  0  0
 47 48  1  0  0  0  0
M  END
>  <rseq>
1

>  <mseq>
12

>  <S>
-10.129118

>  <rmsd_refine>
1.4359627

>  <E_conf>
83.996071

>  <E_place>
-70.960152

>  <E_score1>
-12.504131

>  <E_refine>
-77.869934

>  <E_score2>
-10.129118

>  <Standard ValuenM>
300

>  <PLIF_pronum>
1

>  <PLIF_raw>
[[41,41,27,36,34,32,30,28,14,48,19,17,15],[5555,355,852,852,852,852,852,852,6565,6565,6565,6565,6565],[20201,33,62,62,62,62,62,62,221061,221061,221061,221061,221061],[9,2,10,10,10,10,10,10,10,10,10,10,10],[4.345214611,1.5,0.6,0.6,0.6,0.6,0.6,0.6,0.8,0.8,0.8,0.8,0.8]]

>  <FP:PLIF>
1 9 2 3 4 6

>  <PLIF_ligidx>
[41,41,[27,36,34,32,30,28],41,41,[14,48,19,17,15]]

$$$$
