COCCCn1ccc2cc(-c3cc(-c4ccccc4)cc(=O)n3O)cnc21
  MOE2019           3D

 49 52  0  0  0  0  0  0  0  0999 V2000
   25.6260    5.1920   -1.6720 C   0  0  0  0  0  0  0  0  0  0  0  0
   26.4800    5.5750   -1.1140 H   0  0  0  0  0  0  0  0  0  0  0  0
   24.7990    5.8960   -1.5760 H   0  0  0  0  0  0  0  0  0  0  0  0
   25.9100    5.1040   -2.7190 H   0  0  0  0  0  0  0  0  0  0  0  0
   25.2550    3.9270   -1.1420 O   0  0  0  0  0  0  0  0  0  0  0  0
   24.1070    3.3480   -1.7530 C   0  0  0  0  0  0  0  0  0  0  0  0
   23.3240    4.1020   -1.8480 H   0  0  0  0  0  0  0  0  0  0  0  0
   23.7340    2.5630   -1.0950 H   0  0  0  0  0  0  0  0  0  0  0  0
   24.4030    2.7440   -3.1390 C   0  0  0  0  0  0  0  0  0  0  0  0
   24.8370    3.5090   -3.7810 H   0  0  0  0  0  0  0  0  0  0  0  0
   23.4840    2.4030   -3.6180 H   0  0  0  0  0  0  0  0  0  0  0  0
   25.4180    1.5890   -2.9660 C   0  0  0  0  0  0  0  0  0  0  0  0
   26.0660    1.7700   -2.1210 H   0  0  0  0  0  0  0  0  0  0  0  0
   25.9830    1.5240   -3.8830 H   0  0  0  0  0  0  0  0  0  0  0  0
   24.7250    0.2980   -2.7920 N   0  0  0  0  0  0  0  0  0  0  0  0
   23.4360    0.0380   -2.3520 C   0  0  0  0  0  0  0  0  0  0  0  0
   22.7770    0.8060   -2.0430 H   0  0  0  0  0  0  0  0  0  0  0  0
   23.2200   -1.3010   -2.4090 C   0  0  0  0  0  0  0  0  0  0  0  0
   22.3230   -1.7860   -2.1330 H   0  0  0  0  0  0  0  0  0  0  0  0
   24.3940   -1.9240   -2.8910 C   0  0  0  0  0  0  0  0  0  0  0  0
   24.7700   -3.2430   -3.1830 C   0  0  0  0  0  0  0  0  0  0  0  0
   24.0920   -4.0480   -3.0540 H   0  0  0  0  0  0  0  0  0  0  0  0
   26.0670   -3.4540   -3.6420 C   0  0  0  0  0  0  0  0  0  0  0  0
   26.5990   -4.7650   -3.9880 C   0  0  0  0  0  0  0  0  0  0  0  0
   27.6020   -5.3860   -3.2810 C   0  0  0  0  0  0  0  0  0  0  0  0
   27.9210   -4.9720   -2.3640 H   0  0  0  0  0  0  0  0  0  0  0  0
   28.2590   -6.5530   -3.7660 C   0  0  0  0  0  0  0  0  0  0  0  0
   29.3690   -7.1520   -3.0240 C   0  0  0  0  0  0  0  0  0  0  0  0
   30.2680   -6.3440   -2.3140 C   0  0  0  0  0  0  0  0  0  0  0  0
   30.1500   -5.2920   -2.3060 H   0  0  0  0  0  0  0  0  0  0  0  0
   31.3350   -6.9060   -1.6270 C   0  0  0  0  0  0  0  0  0  0  0  0
   32.0030   -6.2810   -1.0950 H   0  0  0  0  0  0  0  0  0  0  0  0
   31.5350   -8.2810   -1.6490 C   0  0  0  0  0  0  0  0  0  0  0  0
   32.3570   -8.7070   -1.1320 H   0  0  0  0  0  0  0  0  0  0  0  0
   30.6540   -9.0970   -2.3490 C   0  0  0  0  0  0  0  0  0  0  0  0
   30.8100  -10.1450   -2.3690 H   0  0  0  0  0  0  0  0  0  0  0  0
   29.5730   -8.5400   -3.0220 C   0  0  0  0  0  0  0  0  0  0  0  0
   28.9030   -9.1760   -3.5400 H   0  0  0  0  0  0  0  0  0  0  0  0
   27.8530   -7.0740   -4.9680 C   0  0  0  0  0  0  0  0  0  0  0  0
   28.3400   -7.9130   -5.3890 H   0  0  0  0  0  0  0  0  0  0  0  0
   26.7750   -6.5040   -5.7010 C   0  0  0  0  0  0  0  0  0  0  0  0
   26.3760   -6.9380   -6.7960 O   0  0  0  0  0  0  0  0  0  0  0  0
   26.1450   -5.3890   -5.1490 N   0  0  0  0  0  0  0  0  0  0  0  0
   25.0190   -4.8840   -5.7850 O   0  0  0  0  0  0  0  0  0  0  0  0
   24.7480   -4.0980   -5.2670 H   0  0  0  0  0  0  0  0  0  0  0  0
   26.9380   -2.3410   -3.7800 C   0  0  0  0  0  0  0  0  0  0  0  0
   27.9240   -2.5100   -4.1240 H   0  0  0  0  0  0  0  0  0  0  0  0
   26.5910   -1.1010   -3.5100 N   0  0  0  0  0  0  0  0  0  0  0  0
   25.3240   -0.9100   -3.0910 C   0  0  0  0  0  0  0  0  0  0  0  0
  1  2  1  0  0  0  0
  1  3  1  0  0  0  0
  1  4  1  0  0  0  0
  1  5  1  0  0  0  0
  5  6  1  0  0  0  0
  6  7  1  0  0  0  0
  6  8  1  0  0  0  0
  6  9  1  0  0  0  0
  9 10  1  0  0  0  0
  9 11  1  0  0  0  0
  9 12  1  0  0  0  0
 12 13  1  0  0  0  0
 12 14  1  0  0  0  0
 12 15  1  0  0  0  0
 15 16  1  0  0  0  0
 15 49  1  0  0  0  0
 16 17  1  0  0  0  0
 16 18  2  0  0  0  0
 18 19  1  0  0  0  0
 18 20  1  0  0  0  0
 20 21  1  0  0  0  0
 20 49  2  0  0  0  0
 21 22  1  0  0  0  0
 21 23  2  0  0  0  0
 23 24  1  0  0  0  0
 23 46  1  0  0  0  0
 24 25  2  0  0  0  0
 24 43  1  0  0  0  0
 25 26  1  0  0  0  0
 25 27  1  0  0  0  0
 27 28  1  0  0  0  0
 27 39  2  0  0  0  0
 28 29  1  0  0  0  0
 28 37  2  0  0  0  0
 29 30  1  0  0  0  0
 29 31  2  0  0  0  0
 31 32  1  0  0  0  0
 31 33  1  0  0  0  0
 33 34  1  0  0  0  0
 33 35  2  0  0  0  0
 35 36  1  0  0  0  0
 35 37  1  0  0  0  0
 37 38  1  0  0  0  0
 39 40  1  0  0  0  0
 39 41  1  0  0  0  0
 41 42  2  0  0  0  0
 41 43  1  0  0  0  0
 43 44  1  0  0  0  0
 44 45  1  0  0  0  0
 46 47  1  0  0  0  0
 46 48  2  0  0  0  0
 48 49  1  0  0  0  0
M  END
>  <rseq>
1

>  <mseq>
1

>  <S>
-10.148489

>  <rmsd_refine>
1.8030993

>  <E_conf>
78.515266

>  <E_place>
-59.554779

>  <E_score1>
-13.618851

>  <E_refine>
-76.493881

>  <E_score2>
-10.148489

>  <Standard ValuenM>
11

>  <PLIF_pronum>
1

>  <PLIF_raw>
[[42,5,42,28,37,35,33,31,29,20,49,48,46,23,21],[5555,6520,355,852,852,852,852,852,852,6565,6565,6565,6565,6565,6565],[20201,221046,33,62,62,62,62,62,62,221061,221061,221061,221061,221061,221061],[9,6,2,10,10,10,10,10,10,10,10,10,10,10,10],[4.421735711,1,1.2,0.6,0.6,0.6,0.6,0.6,0.6,0.6,0.6,0.6,0.6,0.6,0.6]]

>  <FP:PLIF>
1 2 3 4 5 6

>  <PLIF_ligidx>
[42,[28,37,35,33,31,29],42,42,5,[20,49,48,46,23,21]]

$$$$
