COCCCn1ccc2cc(-c3cc(-c4ccccc4)cc(=O)n3O)cnc21
  MOE2019           3D

 49 52  0  0  0  0  0  0  0  0999 V2000
   23.8350    6.0950   -4.0930 C   0  0  0  0  0  0  0  0  0  0  0  0
   23.2700    6.6060   -4.8730 H   0  0  0  0  0  0  0  0  0  0  0  0
   24.8700    6.4370   -4.1280 H   0  0  0  0  0  0  0  0  0  0  0  0
   23.4000    6.3430   -3.1250 H   0  0  0  0  0  0  0  0  0  0  0  0
   23.7700    4.6970   -4.3160 O   0  0  0  0  0  0  0  0  0  0  0  0
   24.4650    3.9570   -3.3300 C   0  0  0  0  0  0  0  0  0  0  0  0
   24.0320    4.1590   -2.3490 H   0  0  0  0  0  0  0  0  0  0  0  0
   25.5180    4.2380   -3.3230 H   0  0  0  0  0  0  0  0  0  0  0  0
   24.3130    2.4680   -3.6570 C   0  0  0  0  0  0  0  0  0  0  0  0
   24.7300    2.2520   -4.6400 H   0  0  0  0  0  0  0  0  0  0  0  0
   23.2500    2.2250   -3.6540 H   0  0  0  0  0  0  0  0  0  0  0  0
   25.0770    1.6790   -2.5710 C   0  0  0  0  0  0  0  0  0  0  0  0
   24.8540    2.0970   -1.5980 H   0  0  0  0  0  0  0  0  0  0  0  0
   26.1340    1.6840   -2.7990 H   0  0  0  0  0  0  0  0  0  0  0  0
   24.5580    0.3090   -2.6030 N   0  0  0  0  0  0  0  0  0  0  0  0
   23.2800   -0.0310   -2.2070 C   0  0  0  0  0  0  0  0  0  0  0  0
   22.5960    0.6950   -1.8480 H   0  0  0  0  0  0  0  0  0  0  0  0
   23.1180   -1.3660   -2.3660 C   0  0  0  0  0  0  0  0  0  0  0  0
   22.2400   -1.9040   -2.1340 H   0  0  0  0  0  0  0  0  0  0  0  0
   24.3210   -1.9060   -2.8690 C   0  0  0  0  0  0  0  0  0  0  0  0
   24.7440   -3.1960   -3.2150 C   0  0  0  0  0  0  0  0  0  0  0  0
   24.0910   -4.0260   -3.1310 H   0  0  0  0  0  0  0  0  0  0  0  0
   26.0540   -3.3470   -3.6560 C   0  0  0  0  0  0  0  0  0  0  0  0
   26.6200   -4.6450   -4.0210 C   0  0  0  0  0  0  0  0  0  0  0  0
   27.6380   -5.2520   -3.3240 C   0  0  0  0  0  0  0  0  0  0  0  0
   27.9720   -4.8220   -2.4230 H   0  0  0  0  0  0  0  0  0  0  0  0
   28.2760   -6.4410   -3.7830 C   0  0  0  0  0  0  0  0  0  0  0  0
   29.3750   -7.0490   -3.0300 C   0  0  0  0  0  0  0  0  0  0  0  0
   30.2800   -6.2520   -2.3160 C   0  0  0  0  0  0  0  0  0  0  0  0
   30.1760   -5.1980   -2.3120 H   0  0  0  0  0  0  0  0  0  0  0  0
   31.3350   -6.8260   -1.6200 C   0  0  0  0  0  0  0  0  0  0  0  0
   32.0070   -6.2090   -1.0850 H   0  0  0  0  0  0  0  0  0  0  0  0
   31.5170   -8.2040   -1.6360 C   0  0  0  0  0  0  0  0  0  0  0  0
   32.3300   -8.6380   -1.1130 H   0  0  0  0  0  0  0  0  0  0  0  0
   30.6300   -9.0100   -2.3390 C   0  0  0  0  0  0  0  0  0  0  0  0
   30.7720  -10.0590   -2.3530 H   0  0  0  0  0  0  0  0  0  0  0  0
   29.5600   -8.4400   -3.0200 C   0  0  0  0  0  0  0  0  0  0  0  0
   28.8850   -9.0710   -3.5380 H   0  0  0  0  0  0  0  0  0  0  0  0
   27.8520   -6.9870   -4.9670 C   0  0  0  0  0  0  0  0  0  0  0  0
   28.3260   -7.8400   -5.3740 H   0  0  0  0  0  0  0  0  0  0  0  0
   26.7690   -6.4270   -5.6970 C   0  0  0  0  0  0  0  0  0  0  0  0
   26.3520   -6.8910   -6.7720 O   0  0  0  0  0  0  0  0  0  0  0  0
   26.1510   -5.2940   -5.1640 N   0  0  0  0  0  0  0  0  0  0  0  0
   25.0150   -4.8050   -5.7960 O   0  0  0  0  0  0  0  0  0  0  0  0
   24.7660   -3.9920   -5.3100 H   0  0  0  0  0  0  0  0  0  0  0  0
   26.8860   -2.1950   -3.7310 C   0  0  0  0  0  0  0  0  0  0  0  0
   27.8820   -2.3140   -4.0670 H   0  0  0  0  0  0  0  0  0  0  0  0
   26.4940   -0.9770   -3.4060 N   0  0  0  0  0  0  0  0  0  0  0  0
   25.2150   -0.8470   -2.9920 C   0  0  0  0  0  0  0  0  0  0  0  0
  1  2  1  0  0  0  0
  1  3  1  0  0  0  0
  1  4  1  0  0  0  0
  1  5  1  0  0  0  0
  5  6  1  0  0  0  0
  6  7  1  0  0  0  0
  6  8  1  0  0  0  0
  6  9  1  0  0  0  0
  9 10  1  0  0  0  0
  9 11  1  0  0  0  0
  9 12  1  0  0  0  0
 12 13  1  0  0  0  0
 12 14  1  0  0  0  0
 12 15  1  0  0  0  0
 15 16  1  0  0  0  0
 15 49  1  0  0  0  0
 16 17  1  0  0  0  0
 16 18  2  0  0  0  0
 18 19  1  0  0  0  0
 18 20  1  0  0  0  0
 20 21  1  0  0  0  0
 20 49  2  0  0  0  0
 21 22  1  0  0  0  0
 21 23  2  0  0  0  0
 23 24  1  0  0  0  0
 23 46  1  0  0  0  0
 24 25  2  0  0  0  0
 24 43  1  0  0  0  0
 25 26  1  0  0  0  0
 25 27  1  0  0  0  0
 27 28  1  0  0  0  0
 27 39  2  0  0  0  0
 28 29  1  0  0  0  0
 28 37  2  0  0  0  0
 29 30  1  0  0  0  0
 29 31  2  0  0  0  0
 31 32  1  0  0  0  0
 31 33  1  0  0  0  0
 33 34  1  0  0  0  0
 33 35  2  0  0  0  0
 35 36  1  0  0  0  0
 35 37  1  0  0  0  0
 37 38  1  0  0  0  0
 39 40  1  0  0  0  0
 39 41  1  0  0  0  0
 41 42  2  0  0  0  0
 41 43  1  0  0  0  0
 43 44  1  0  0  0  0
 44 45  1  0  0  0  0
 46 47  1  0  0  0  0
 46 48  2  0  0  0  0
 48 49  1  0  0  0  0
M  END
>  <rseq>
1

>  <mseq>
1

>  <S>
-10.097131

>  <rmsd_refine>
1.2863388

>  <E_conf>
73.915863

>  <E_place>
-96.597549

>  <E_score1>
-13.453597

>  <E_refine>
-76.138344

>  <E_score2>
-10.097131

>  <Standard ValuenM>
11

>  <PLIF_pronum>
1

>  <PLIF_raw>
[[42,42,28,37,35,33,31,29,20,49,48,46,23,21],[5555,355,852,852,852,852,852,852,6565,6565,6565,6565,6565,6565],[20201,33,62,62,62,62,62,62,221061,221061,221061,221061,221061,221061],[9,2,10,10,10,10,10,10,10,10,10,10,10,10],[4.446622545,1,0.6,0.6,0.6,0.6,0.6,0.6,0.5,0.5,0.5,0.5,0.5,0.5]]

>  <FP:PLIF>
1 2 3 4 6

>  <PLIF_ligidx>
[42,[28,37,35,33,31,29],42,42,[20,49,48,46,23,21]]

$$$$
