COCCCn1ccc2cc(-c3cc(-c4ccccc4)cc(=O)n3O)cnc21
  MOE2019           3D

 49 52  0  0  0  0  0  0  0  0999 V2000
   22.9720    3.8310    0.6700 C   0  0  0  0  0  0  0  0  0  0  0  0
   22.6780    2.8610    1.0750 H   0  0  0  0  0  0  0  0  0  0  0  0
   23.8820    4.1730    1.1640 H   0  0  0  0  0  0  0  0  0  0  0  0
   22.1750    4.5490    0.8620 H   0  0  0  0  0  0  0  0  0  0  0  0
   23.1820    3.7310   -0.7280 O   0  0  0  0  0  0  0  0  0  0  0  0
   24.2130    2.8180   -1.0510 C   0  0  0  0  0  0  0  0  0  0  0  0
   23.9660    1.8370   -0.6440 H   0  0  0  0  0  0  0  0  0  0  0  0
   25.1560    3.1540   -0.6190 H   0  0  0  0  0  0  0  0  0  0  0  0
   24.3490    2.7550   -2.5790 C   0  0  0  0  0  0  0  0  0  0  0  0
   24.7870    3.6910   -2.9260 H   0  0  0  0  0  0  0  0  0  0  0  0
   23.3770    2.6320   -3.0590 H   0  0  0  0  0  0  0  0  0  0  0  0
   25.2990    1.5950   -2.9500 C   0  0  0  0  0  0  0  0  0  0  0  0
   26.1810    1.6370   -2.3250 H   0  0  0  0  0  0  0  0  0  0  0  0
   25.5460    1.7020   -3.9960 H   0  0  0  0  0  0  0  0  0  0  0  0
   24.6420    0.2800   -2.7850 N   0  0  0  0  0  0  0  0  0  0  0  0
   23.3420   -0.0140   -2.3960 C   0  0  0  0  0  0  0  0  0  0  0  0
   22.6470    0.7340   -2.1160 H   0  0  0  0  0  0  0  0  0  0  0  0
   23.1670   -1.3570   -2.4480 C   0  0  0  0  0  0  0  0  0  0  0  0
   22.2790   -1.8660   -2.1880 H   0  0  0  0  0  0  0  0  0  0  0  0
   24.3660   -1.9480   -2.9000 C   0  0  0  0  0  0  0  0  0  0  0  0
   24.7710   -3.2570   -3.1920 C   0  0  0  0  0  0  0  0  0  0  0  0
   24.1060   -4.0740   -3.0770 H   0  0  0  0  0  0  0  0  0  0  0  0
   26.0740   -3.4400   -3.6420 C   0  0  0  0  0  0  0  0  0  0  0  0
   26.6200   -4.7440   -3.9960 C   0  0  0  0  0  0  0  0  0  0  0  0
   27.6280   -5.3620   -3.2940 C   0  0  0  0  0  0  0  0  0  0  0  0
   27.9510   -4.9450   -2.3810 H   0  0  0  0  0  0  0  0  0  0  0  0
   28.2760   -6.5360   -3.7740 C   0  0  0  0  0  0  0  0  0  0  0  0
   29.3820   -7.1390   -3.0280 C   0  0  0  0  0  0  0  0  0  0  0  0
   30.2820   -6.3350   -2.3150 C   0  0  0  0  0  0  0  0  0  0  0  0
   30.1700   -5.2830   -2.3080 H   0  0  0  0  0  0  0  0  0  0  0  0
   31.3440   -6.9020   -1.6240 C   0  0  0  0  0  0  0  0  0  0  0  0
   32.0120   -6.2800   -1.0900 H   0  0  0  0  0  0  0  0  0  0  0  0
   31.5370   -8.2780   -1.6440 C   0  0  0  0  0  0  0  0  0  0  0  0
   32.3540   -8.7070   -1.1240 H   0  0  0  0  0  0  0  0  0  0  0  0
   30.6550   -9.0900   -2.3480 C   0  0  0  0  0  0  0  0  0  0  0  0
   30.8060  -10.1390   -2.3660 H   0  0  0  0  0  0  0  0  0  0  0  0
   29.5790   -8.5280   -3.0250 C   0  0  0  0  0  0  0  0  0  0  0  0
   28.9080   -9.1620   -3.5440 H   0  0  0  0  0  0  0  0  0  0  0  0
   27.8630   -7.0620   -4.9720 C   0  0  0  0  0  0  0  0  0  0  0  0
   28.3450   -7.9050   -5.3900 H   0  0  0  0  0  0  0  0  0  0  0  0
   26.7840   -6.4920   -5.7020 C   0  0  0  0  0  0  0  0  0  0  0  0
   26.3770   -6.9320   -6.7920 O   0  0  0  0  0  0  0  0  0  0  0  0
   26.1600   -5.3730   -5.1530 N   0  0  0  0  0  0  0  0  0  0  0  0
   25.0300   -4.8710   -5.7860 O   0  0  0  0  0  0  0  0  0  0  0  0
   24.7640   -4.0800   -5.2730 H   0  0  0  0  0  0  0  0  0  0  0  0
   26.9260   -2.3090   -3.7590 C   0  0  0  0  0  0  0  0  0  0  0  0
   27.9180   -2.4560   -4.0950 H   0  0  0  0  0  0  0  0  0  0  0  0
   26.5530   -1.0760   -3.4820 N   0  0  0  0  0  0  0  0  0  0  0  0
   25.2770   -0.9120   -3.0780 C   0  0  0  0  0  0  0  0  0  0  0  0
  1  2  1  0  0  0  0
  1  3  1  0  0  0  0
  1  4  1  0  0  0  0
  1  5  1  0  0  0  0
  5  6  1  0  0  0  0
  6  7  1  0  0  0  0
  6  8  1  0  0  0  0
  6  9  1  0  0  0  0
  9 10  1  0  0  0  0
  9 11  1  0  0  0  0
  9 12  1  0  0  0  0
 12 13  1  0  0  0  0
 12 14  1  0  0  0  0
 12 15  1  0  0  0  0
 15 16  1  0  0  0  0
 15 49  1  0  0  0  0
 16 17  1  0  0  0  0
 16 18  2  0  0  0  0
 18 19  1  0  0  0  0
 18 20  1  0  0  0  0
 20 21  1  0  0  0  0
 20 49  2  0  0  0  0
 21 22  1  0  0  0  0
 21 23  2  0  0  0  0
 23 24  1  0  0  0  0
 23 46  1  0  0  0  0
 24 25  2  0  0  0  0
 24 43  1  0  0  0  0
 25 26  1  0  0  0  0
 25 27  1  0  0  0  0
 27 28  1  0  0  0  0
 27 39  2  0  0  0  0
 28 29  1  0  0  0  0
 28 37  2  0  0  0  0
 29 30  1  0  0  0  0
 29 31  2  0  0  0  0
 31 32  1  0  0  0  0
 31 33  1  0  0  0  0
 33 34  1  0  0  0  0
 33 35  2  0  0  0  0
 35 36  1  0  0  0  0
 35 37  1  0  0  0  0
 37 38  1  0  0  0  0
 39 40  1  0  0  0  0
 39 41  1  0  0  0  0
 41 42  2  0  0  0  0
 41 43  1  0  0  0  0
 43 44  1  0  0  0  0
 44 45  1  0  0  0  0
 46 47  1  0  0  0  0
 46 48  2  0  0  0  0
 48 49  1  0  0  0  0
M  END
>  <rseq>
1

>  <mseq>
1

>  <S>
-9.8820105

>  <rmsd_refine>
1.3729179

>  <E_conf>
76.414566

>  <E_place>
-72.310631

>  <E_score1>
-13.615221

>  <E_refine>
-73.618515

>  <E_score2>
-9.8820105

>  <Standard ValuenM>
11

>  <PLIF_pronum>
1

>  <PLIF_raw>
[[42,42,28,37,35,33,31,29,20,49,48,46,23,21],[5555,355,852,852,852,852,852,852,6565,6565,6565,6565,6565,6565],[20201,33,62,62,62,62,62,62,221061,221061,221061,221061,221061,221061],[9,2,10,10,10,10,10,10,10,10,10,10,10,10],[4.421170834,1.1,0.6,0.6,0.6,0.6,0.6,0.6,0.7,0.7,0.7,0.7,0.7,0.7]]

>  <FP:PLIF>
1 2 3 4 6

>  <PLIF_ligidx>
[42,[28,37,35,33,31,29],42,42,[20,49,48,46,23,21]]

$$$$
