COCCCn1ccc2cc(-c3cc(-c4ccccc4)cc(=O)n3O)cnc21
  MOE2019           3D

 49 52  0  0  0  0  0  0  0  0999 V2000
   28.3070   -7.3520   -6.5590 C   0  0  0  0  0  0  0  0  0  0  0  0
   29.2250   -6.8750   -6.2280 H   0  0  0  0  0  0  0  0  0  0  0  0
   28.2800   -7.3050   -7.6400 H   0  0  0  0  0  0  0  0  0  0  0  0
   28.2850   -8.3940   -6.2540 H   0  0  0  0  0  0  0  0  0  0  0  0
   27.1840   -6.6880   -6.0250 O   0  0  0  0  0  0  0  0  0  0  0  0
   27.2610   -6.5450   -4.6130 C   0  0  0  0  0  0  0  0  0  0  0  0
   27.5940   -7.4750   -4.1500 H   0  0  0  0  0  0  0  0  0  0  0  0
   26.2590   -6.3430   -4.2650 H   0  0  0  0  0  0  0  0  0  0  0  0
   28.1260   -5.3790   -4.1130 C   0  0  0  0  0  0  0  0  0  0  0  0
   29.1770   -5.6440   -4.2090 H   0  0  0  0  0  0  0  0  0  0  0  0
   27.9130   -5.1920   -3.0590 H   0  0  0  0  0  0  0  0  0  0  0  0
   27.8530   -4.1030   -4.9370 C   0  0  0  0  0  0  0  0  0  0  0  0
   28.0090   -4.2980   -5.9850 H   0  0  0  0  0  0  0  0  0  0  0  0
   28.5260   -3.3540   -4.5620 H   0  0  0  0  0  0  0  0  0  0  0  0
   26.4810   -3.6260   -4.7210 N   0  0  0  0  0  0  0  0  0  0  0  0
   25.3290   -4.1940   -5.2310 C   0  0  0  0  0  0  0  0  0  0  0  0
   25.3440   -5.0770   -5.8070 H   0  0  0  0  0  0  0  0  0  0  0  0
   24.2710   -3.4310   -4.8730 C   0  0  0  0  0  0  0  0  0  0  0  0
   23.2750   -3.6310   -5.1430 H   0  0  0  0  0  0  0  0  0  0  0  0
   24.7500   -2.3270   -4.1360 C   0  0  0  0  0  0  0  0  0  0  0  0
   24.1580   -1.1960   -3.5660 C   0  0  0  0  0  0  0  0  0  0  0  0
   23.1110   -1.0450   -3.6100 H   0  0  0  0  0  0  0  0  0  0  0  0
   24.9920   -0.2670   -2.9570 C   0  0  0  0  0  0  0  0  0  0  0  0
   24.4660    0.9330   -2.3190 C   0  0  0  0  0  0  0  0  0  0  0  0
   24.8090    2.2100   -2.6930 C   0  0  0  0  0  0  0  0  0  0  0  0
   25.4390    2.3590   -3.5290 H   0  0  0  0  0  0  0  0  0  0  0  0
   24.3400    3.3470   -1.9790 C   0  0  0  0  0  0  0  0  0  0  0  0
   24.7250    4.6870   -2.3970 C   0  0  0  0  0  0  0  0  0  0  0  0
   24.0420    5.3230   -3.4380 C   0  0  0  0  0  0  0  0  0  0  0  0
   23.2540    4.8210   -3.9380 H   0  0  0  0  0  0  0  0  0  0  0  0
   24.3830    6.6160   -3.8170 C   0  0  0  0  0  0  0  0  0  0  0  0
   23.8500    7.0960   -4.5960 H   0  0  0  0  0  0  0  0  0  0  0  0
   25.4200    7.2830   -3.1720 C   0  0  0  0  0  0  0  0  0  0  0  0
   25.6820    8.2670   -3.4690 H   0  0  0  0  0  0  0  0  0  0  0  0
   26.1120    6.6570   -2.1400 C   0  0  0  0  0  0  0  0  0  0  0  0
   26.9020    7.1660   -1.6520 H   0  0  0  0  0  0  0  0  0  0  0  0
   25.7670    5.3670   -1.7530 C   0  0  0  0  0  0  0  0  0  0  0  0
   26.2940    4.8990   -0.9640 H   0  0  0  0  0  0  0  0  0  0  0  0
   23.5180    3.1630   -0.8970 C   0  0  0  0  0  0  0  0  0  0  0  0
   23.1630    3.9940   -0.3440 H   0  0  0  0  0  0  0  0  0  0  0  0
   23.1070    1.8600   -0.4900 C   0  0  0  0  0  0  0  0  0  0  0  0
   22.3510    1.6360    0.4760 O   0  0  0  0  0  0  0  0  0  0  0  0
   23.5950    0.7850   -1.2350 N   0  0  0  0  0  0  0  0  0  0  0  0
   23.2070   -0.4910   -0.8560 O   0  0  0  0  0  0  0  0  0  0  0  0
   23.6410   -1.1160   -1.4700 H   0  0  0  0  0  0  0  0  0  0  0  0
   26.3980   -0.4930   -2.9630 C   0  0  0  0  0  0  0  0  0  0  0  0
   27.0410    0.2270   -2.5260 H   0  0  0  0  0  0  0  0  0  0  0  0
   26.9570   -1.5620   -3.4880 N   0  0  0  0  0  0  0  0  0  0  0  0
   26.1310   -2.4620   -4.0630 C   0  0  0  0  0  0  0  0  0  0  0  0
  1  2  1  0  0  0  0
  1  3  1  0  0  0  0
  1  4  1  0  0  0  0
  1  5  1  0  0  0  0
  5  6  1  0  0  0  0
  6  7  1  0  0  0  0
  6  8  1  0  0  0  0
  6  9  1  0  0  0  0
  9 10  1  0  0  0  0
  9 11  1  0  0  0  0
  9 12  1  0  0  0  0
 12 13  1  0  0  0  0
 12 14  1  0  0  0  0
 12 15  1  0  0  0  0
 15 16  1  0  0  0  0
 15 49  1  0  0  0  0
 16 17  1  0  0  0  0
 16 18  2  0  0  0  0
 18 19  1  0  0  0  0
 18 20  1  0  0  0  0
 20 21  1  0  0  0  0
 20 49  2  0  0  0  0
 21 22  1  0  0  0  0
 21 23  2  0  0  0  0
 23 24  1  0  0  0  0
 23 46  1  0  0  0  0
 24 25  2  0  0  0  0
 24 43  1  0  0  0  0
 25 26  1  0  0  0  0
 25 27  1  0  0  0  0
 27 28  1  0  0  0  0
 27 39  2  0  0  0  0
 28 29  1  0  0  0  0
 28 37  2  0  0  0  0
 29 30  1  0  0  0  0
 29 31  2  0  0  0  0
 31 32  1  0  0  0  0
 31 33  1  0  0  0  0
 33 34  1  0  0  0  0
 33 35  2  0  0  0  0
 35 36  1  0  0  0  0
 35 37  1  0  0  0  0
 37 38  1  0  0  0  0
 39 40  1  0  0  0  0
 39 41  1  0  0  0  0
 41 42  2  0  0  0  0
 41 43  1  0  0  0  0
 43 44  1  0  0  0  0
 44 45  1  0  0  0  0
 46 47  1  0  0  0  0
 46 48  2  0  0  0  0
 48 49  1  0  0  0  0
M  END
>  <rseq>
1

>  <mseq>
1

>  <S>
-6.5370116

>  <rmsd_refine>
1.5028852

>  <E_conf>
77.98542

>  <E_place>
-71.084518

>  <E_score1>
-13.884676

>  <E_refine>
-26.277184

>  <E_score2>
-6.5370116

>  <Standard ValuenM>
11

>  <PLIF_pronum>
1

>  <PLIF_raw>
[[12,20,49,48,46,23,21],[5132,5209,5209,5209,5209,5209,5209],[10157,10162,10162,10162,10162,10162,10162],[1,10,10,10,10,10,10],[0.5,0.6,0.6,0.6,0.6,0.6,0.6]]

>  <FP:PLIF>
7 8

>  <PLIF_ligidx>
[12,[20,49,48,46,23,21]]

$$$$
