COCCn1ccc2cc(-c3cc(-c4ccccc4)cc(=O)n3O)cnc21
  MOE2019           3D

 46 49  0  0  0  0  0  0  0  0999 V2000
   22.9570    2.9210   -4.8310 C   0  0  0  0  0  0  0  0  0  0  0  0
   23.5710    3.4790   -5.5390 H   0  0  0  0  0  0  0  0  0  0  0  0
   23.2310    3.2230   -3.8200 H   0  0  0  0  0  0  0  0  0  0  0  0
   21.9090    3.1570   -5.0160 H   0  0  0  0  0  0  0  0  0  0  0  0
   23.1890    1.5350   -5.0190 O   0  0  0  0  0  0  0  0  0  0  0  0
   22.3890    0.6640   -4.2250 C   0  0  0  0  0  0  0  0  0  0  0  0
   22.4180   -0.3320   -4.6650 H   0  0  0  0  0  0  0  0  0  0  0  0
   21.3550    1.0060   -4.1990 H   0  0  0  0  0  0  0  0  0  0  0  0
   22.9730    0.6040   -2.7940 C   0  0  0  0  0  0  0  0  0  0  0  0
   22.3890   -0.0980   -2.2150 H   0  0  0  0  0  0  0  0  0  0  0  0
   22.9840    1.5910   -2.3560 H   0  0  0  0  0  0  0  0  0  0  0  0
   24.3430    0.1080   -2.9050 N   0  0  0  0  0  0  0  0  0  0  0  0
   25.4790    0.8980   -2.8880 C   0  0  0  0  0  0  0  0  0  0  0  0
   25.4250    1.9450   -2.7320 H   0  0  0  0  0  0  0  0  0  0  0  0
   26.5600    0.1070   -3.1100 C   0  0  0  0  0  0  0  0  0  0  0  0
   27.5670    0.4330   -3.1560 H   0  0  0  0  0  0  0  0  0  0  0  0
   26.1010   -1.2180   -3.2840 C   0  0  0  0  0  0  0  0  0  0  0  0
   26.7150   -2.4280   -3.6010 C   0  0  0  0  0  0  0  0  0  0  0  0
   27.7520   -2.4720   -3.8060 H   0  0  0  0  0  0  0  0  0  0  0  0
   25.9220   -3.5630   -3.6780 C   0  0  0  0  0  0  0  0  0  0  0  0
   26.5450   -4.8300   -4.0390 C   0  0  0  0  0  0  0  0  0  0  0  0
   27.5710   -5.4080   -3.3280 C   0  0  0  0  0  0  0  0  0  0  0  0
   27.8690   -4.9810   -2.4090 H   0  0  0  0  0  0  0  0  0  0  0  0
   28.2620   -6.5600   -3.8040 C   0  0  0  0  0  0  0  0  0  0  0  0
   29.3710   -7.1370   -3.0430 C   0  0  0  0  0  0  0  0  0  0  0  0
   30.2540   -6.3150   -2.3310 C   0  0  0  0  0  0  0  0  0  0  0  0
   30.1240   -5.2640   -2.3340 H   0  0  0  0  0  0  0  0  0  0  0  0
   31.3190   -6.8600   -1.6280 C   0  0  0  0  0  0  0  0  0  0  0  0
   31.9760   -6.2260   -1.0940 H   0  0  0  0  0  0  0  0  0  0  0  0
   31.5310   -8.2340   -1.6340 C   0  0  0  0  0  0  0  0  0  0  0  0
   32.3500   -8.6470   -1.1030 H   0  0  0  0  0  0  0  0  0  0  0  0
   30.6650   -9.0650   -2.3350 C   0  0  0  0  0  0  0  0  0  0  0  0
   30.8290  -10.1110   -2.3400 H   0  0  0  0  0  0  0  0  0  0  0  0
   29.5870   -8.5240   -3.0250 C   0  0  0  0  0  0  0  0  0  0  0  0
   28.9280   -9.1710   -3.5430 H   0  0  0  0  0  0  0  0  0  0  0  0
   27.8820   -7.0940   -5.0090 C   0  0  0  0  0  0  0  0  0  0  0  0
   28.3950   -7.9220   -5.4210 H   0  0  0  0  0  0  0  0  0  0  0  0
   26.7980   -6.5570   -5.7550 C   0  0  0  0  0  0  0  0  0  0  0  0
   26.4180   -7.0030   -6.8530 O   0  0  0  0  0  0  0  0  0  0  0  0
   26.1300   -5.4640   -5.2100 N   0  0  0  0  0  0  0  0  0  0  0  0
   25.0020   -4.9920   -5.8690 O   0  0  0  0  0  0  0  0  0  0  0  0
   24.7690   -4.1450   -5.4350 H   0  0  0  0  0  0  0  0  0  0  0  0
   24.5240   -3.4480   -3.4250 C   0  0  0  0  0  0  0  0  0  0  0  0
   23.9200   -4.3200   -3.4510 H   0  0  0  0  0  0  0  0  0  0  0  0
   23.9280   -2.2980   -3.1710 N   0  0  0  0  0  0  0  0  0  0  0  0
   24.7210   -1.2020   -3.1200 C   0  0  0  0  0  0  0  0  0  0  0  0
  1  2  1  0  0  0  0
  1  3  1  0  0  0  0
  1  4  1  0  0  0  0
  1  5  1  0  0  0  0
  5  6  1  0  0  0  0
  6  7  1  0  0  0  0
  6  8  1  0  0  0  0
  6  9  1  0  0  0  0
  9 10  1  0  0  0  0
  9 11  1  0  0  0  0
  9 12  1  0  0  0  0
 12 13  1  0  0  0  0
 12 46  1  0  0  0  0
 13 14  1  0  0  0  0
 13 15  2  0  0  0  0
 15 16  1  0  0  0  0
 15 17  1  0  0  0  0
 17 18  1  0  0  0  0
 17 46  2  0  0  0  0
 18 19  1  0  0  0  0
 18 20  2  0  0  0  0
 20 21  1  0  0  0  0
 20 43  1  0  0  0  0
 21 22  2  0  0  0  0
 21 40  1  0  0  0  0
 22 23  1  0  0  0  0
 22 24  1  0  0  0  0
 24 25  1  0  0  0  0
 24 36  2  0  0  0  0
 25 26  1  0  0  0  0
 25 34  2  0  0  0  0
 26 27  1  0  0  0  0
 26 28  2  0  0  0  0
 28 29  1  0  0  0  0
 28 30  1  0  0  0  0
 30 31  1  0  0  0  0
 30 32  2  0  0  0  0
 32 33  1  0  0  0  0
 32 34  1  0  0  0  0
 34 35  1  0  0  0  0
 36 37  1  0  0  0  0
 36 38  1  0  0  0  0
 38 39  2  0  0  0  0
 38 40  1  0  0  0  0
 40 41  1  0  0  0  0
 41 42  1  0  0  0  0
 43 44  1  0  0  0  0
 43 45  2  0  0  0  0
 45 46  1  0  0  0  0
M  END
>  <rseq>
1

>  <mseq>
2

>  <S>
-10.33381

>  <rmsd_refine>
1.100543

>  <E_conf>
80.888992

>  <E_place>
-117.48299

>  <E_score1>
-13.706912

>  <E_refine>
-78.684746

>  <E_score2>
-10.33381

>  <Standard ValuenM>
14

>  <PLIF_pronum>
1

>  <PLIF_raw>
[[39,39,45,25,34,32,30,28,26,12,46,17,15,13],[5555,355,6580,852,852,852,852,852,852,6565,6565,6565,6565,6565],[20201,33,221066,62,62,62,62,62,62,221061,221061,221061,221061,221061],[9,2,6,10,10,10,10,10,10,10,10,10,10,10],[4.348788671,1.5,0.6,0.6,0.6,0.6,0.6,0.6,0.6,1,1,1,1,1]]

>  <FP:PLIF>
1 9 2 3 4 6 10 11

>  <PLIF_ligidx>
[39,39,[25,34,32,30,28,26],39,39,[12,46,17,15,13],[12,46,17,15,13],45]

$$$$
