COCCn1ccc2cc(-c3cc(-c4ccccc4)cc(=O)n3O)cnc21
  MOE2019           3D

 46 49  0  0  0  0  0  0  0  0999 V2000
   21.3040    0.7430    0.9120 C   0  0  0  0  0  0  0  0  0  0  0  0
   20.2620    0.9920    1.1130 H   0  0  0  0  0  0  0  0  0  0  0  0
   21.9430    1.5160    1.3410 H   0  0  0  0  0  0  0  0  0  0  0  0
   21.5330   -0.2140    1.3810 H   0  0  0  0  0  0  0  0  0  0  0  0
   21.5030    0.6700   -0.4900 O   0  0  0  0  0  0  0  0  0  0  0  0
   22.8290    0.3080   -0.8300 C   0  0  0  0  0  0  0  0  0  0  0  0
   23.0390   -0.7120   -0.5060 H   0  0  0  0  0  0  0  0  0  0  0  0
   23.5420    1.0030   -0.3840 H   0  0  0  0  0  0  0  0  0  0  0  0
   22.8920    0.4000   -2.3600 C   0  0  0  0  0  0  0  0  0  0  0  0
   22.7260    1.4230   -2.6650 H   0  0  0  0  0  0  0  0  0  0  0  0
   22.1790   -0.2910   -2.7900 H   0  0  0  0  0  0  0  0  0  0  0  0
   24.2480    0.0060   -2.7240 N   0  0  0  0  0  0  0  0  0  0  0  0
   25.3450    0.8470   -2.7700 C   0  0  0  0  0  0  0  0  0  0  0  0
   25.2590    1.8830   -2.5650 H   0  0  0  0  0  0  0  0  0  0  0  0
   26.4390    0.1120   -3.0970 C   0  0  0  0  0  0  0  0  0  0  0  0
   27.4260    0.4840   -3.2020 H   0  0  0  0  0  0  0  0  0  0  0  0
   26.0280   -1.2280   -3.2730 C   0  0  0  0  0  0  0  0  0  0  0  0
   26.6750   -2.4120   -3.6290 C   0  0  0  0  0  0  0  0  0  0  0  0
   27.7060   -2.4170   -3.8650 H   0  0  0  0  0  0  0  0  0  0  0  0
   25.9200   -3.5760   -3.6820 C   0  0  0  0  0  0  0  0  0  0  0  0
   26.5650   -4.8280   -4.0550 C   0  0  0  0  0  0  0  0  0  0  0  0
   27.5980   -5.3970   -3.3500 C   0  0  0  0  0  0  0  0  0  0  0  0
   27.9000   -4.9650   -2.4350 H   0  0  0  0  0  0  0  0  0  0  0  0
   28.2850   -6.5530   -3.8210 C   0  0  0  0  0  0  0  0  0  0  0  0
   29.3890   -7.1340   -3.0550 C   0  0  0  0  0  0  0  0  0  0  0  0
   30.2690   -6.3140   -2.3370 C   0  0  0  0  0  0  0  0  0  0  0  0
   30.1440   -5.2620   -2.3420 H   0  0  0  0  0  0  0  0  0  0  0  0
   31.3280   -6.8620   -1.6260 C   0  0  0  0  0  0  0  0  0  0  0  0
   31.9830   -6.2300   -1.0880 H   0  0  0  0  0  0  0  0  0  0  0  0
   31.5350   -8.2370   -1.6300 C   0  0  0  0  0  0  0  0  0  0  0  0
   32.3490   -8.6530   -1.0940 H   0  0  0  0  0  0  0  0  0  0  0  0
   30.6710   -9.0650   -2.3370 C   0  0  0  0  0  0  0  0  0  0  0  0
   30.8320  -10.1120   -2.3410 H   0  0  0  0  0  0  0  0  0  0  0  0
   29.6000   -8.5210   -3.0350 C   0  0  0  0  0  0  0  0  0  0  0  0
   28.9420   -9.1670   -3.5560 H   0  0  0  0  0  0  0  0  0  0  0  0
   27.9010   -7.0930   -5.0230 C   0  0  0  0  0  0  0  0  0  0  0  0
   28.4090   -7.9230   -5.4340 H   0  0  0  0  0  0  0  0  0  0  0  0
   26.8130   -6.5590   -5.7670 C   0  0  0  0  0  0  0  0  0  0  0  0
   26.4270   -7.0080   -6.8610 O   0  0  0  0  0  0  0  0  0  0  0  0
   26.1450   -5.4660   -5.2220 N   0  0  0  0  0  0  0  0  0  0  0  0
   25.0080   -5.0030   -5.8700 O   0  0  0  0  0  0  0  0  0  0  0  0
   24.7520   -4.1740   -5.4140 H   0  0  0  0  0  0  0  0  0  0  0  0
   24.5300   -3.5150   -3.3790 C   0  0  0  0  0  0  0  0  0  0  0  0
   23.9540   -4.4060   -3.4030 H   0  0  0  0  0  0  0  0  0  0  0  0
   23.9070   -2.3940   -3.0750 N   0  0  0  0  0  0  0  0  0  0  0  0
   24.6620   -1.2740   -3.0270 C   0  0  0  0  0  0  0  0  0  0  0  0
  1  2  1  0  0  0  0
  1  3  1  0  0  0  0
  1  4  1  0  0  0  0
  1  5  1  0  0  0  0
  5  6  1  0  0  0  0
  6  7  1  0  0  0  0
  6  8  1  0  0  0  0
  6  9  1  0  0  0  0
  9 10  1  0  0  0  0
  9 11  1  0  0  0  0
  9 12  1  0  0  0  0
 12 13  1  0  0  0  0
 12 46  1  0  0  0  0
 13 14  1  0  0  0  0
 13 15  2  0  0  0  0
 15 16  1  0  0  0  0
 15 17  1  0  0  0  0
 17 18  1  0  0  0  0
 17 46  2  0  0  0  0
 18 19  1  0  0  0  0
 18 20  2  0  0  0  0
 20 21  1  0  0  0  0
 20 43  1  0  0  0  0
 21 22  2  0  0  0  0
 21 40  1  0  0  0  0
 22 23  1  0  0  0  0
 22 24  1  0  0  0  0
 24 25  1  0  0  0  0
 24 36  2  0  0  0  0
 25 26  1  0  0  0  0
 25 34  2  0  0  0  0
 26 27  1  0  0  0  0
 26 28  2  0  0  0  0
 28 29  1  0  0  0  0
 28 30  1  0  0  0  0
 30 31  1  0  0  0  0
 30 32  2  0  0  0  0
 32 33  1  0  0  0  0
 32 34  1  0  0  0  0
 34 35  1  0  0  0  0
 36 37  1  0  0  0  0
 36 38  1  0  0  0  0
 38 39  2  0  0  0  0
 38 40  1  0  0  0  0
 40 41  1  0  0  0  0
 41 42  1  0  0  0  0
 43 44  1  0  0  0  0
 43 45  2  0  0  0  0
 45 46  1  0  0  0  0
M  END
>  <rseq>
1

>  <mseq>
2

>  <S>
-10.211477

>  <rmsd_refine>
1.3436921

>  <E_conf>
78.298584

>  <E_place>
-132.63893

>  <E_score1>
-14.580117

>  <E_refine>
-79.171486

>  <E_score2>
-10.211477

>  <Standard ValuenM>
14

>  <PLIF_pronum>
1

>  <PLIF_raw>
[[39,39,25,34,32,30,28,26,12,46,17,15,13],[5555,355,852,852,852,852,852,852,6565,6565,6565,6565,6565],[20201,33,62,62,62,62,62,62,221061,221061,221061,221061,221061],[9,2,10,10,10,10,10,10,10,10,10,10,10],[4.336148302,1.5,0.6,0.6,0.6,0.6,0.6,0.6,0.8,0.8,0.8,0.8,0.8]]

>  <FP:PLIF>
1 9 2 3 4 6

>  <PLIF_ligidx>
[39,39,[25,34,32,30,28,26],39,39,[12,46,17,15,13]]

$$$$
