C#CCCCC(=O)Nc1ccc(C(=O)c2ccc(Nc3ncc(F)c(Nc4ccccc4NS(C)(=O)=O)n3)cc2)cc1
  MOE2019           3D

 69 72  0  0  0  0  0  0  0  0999 V2000
   30.6920   -5.9360   -1.8250 C   0  0  0  0  0  0  0  0  0  0  0  0
   31.1690   -5.1630   -1.3300 H   0  0  0  0  0  0  0  0  0  0  0  0
   30.1430   -6.8260   -2.3950 C   0  0  0  0  0  0  0  0  0  0  0  0
   29.4580   -7.9370   -3.0900 C   0  0  0  0  0  0  0  0  0  0  0  0
   29.2230   -8.6910   -2.3520 H   0  0  0  0  0  0  0  0  0  0  0  0
   30.1000   -8.3160   -3.8670 H   0  0  0  0  0  0  0  0  0  0  0  0
   28.1330   -7.3930   -3.6710 C   0  0  0  0  0  0  0  0  0  0  0  0
   27.6150   -6.8050   -2.9100 H   0  0  0  0  0  0  0  0  0  0  0  0
   27.5190   -8.2460   -3.9420 H   0  0  0  0  0  0  0  0  0  0  0  0
   28.3820   -6.5610   -4.9550 C   0  0  0  0  0  0  0  0  0  0  0  0
   28.4840   -7.2170   -5.8090 H   0  0  0  0  0  0  0  0  0  0  0  0
   29.2310   -5.9200   -4.7980 H   0  0  0  0  0  0  0  0  0  0  0  0
   27.1820   -5.6530   -5.1270 C   0  0  0  0  0  0  0  0  0  0  0  0
   26.1750   -5.9520   -5.7560 O   0  0  0  0  0  0  0  0  0  0  0  0
   27.3240   -4.4430   -4.4850 N   0  0  0  0  0  0  0  0  0  0  0  0
   28.2820   -4.2170   -4.1730 H   0  0  0  0  0  0  0  0  0  0  0  0
   26.3290   -3.5320   -4.0920 C   0  0  0  0  0  0  0  0  0  0  0  0
   26.7320   -2.2210   -3.8370 C   0  0  0  0  0  0  0  0  0  0  0  0
   27.7350   -1.9340   -4.0030 H   0  0  0  0  0  0  0  0  0  0  0  0
   25.8180   -1.3010   -3.3500 C   0  0  0  0  0  0  0  0  0  0  0  0
   26.1370   -0.3080   -3.1640 H   0  0  0  0  0  0  0  0  0  0  0  0
   24.4920   -1.6800   -3.0850 C   0  0  0  0  0  0  0  0  0  0  0  0
   23.5390   -0.7150   -2.5500 C   0  0  0  0  0  0  0  0  0  0  0  0
   22.5760   -1.0980   -1.9040 O   0  0  0  0  0  0  0  0  0  0  0  0
   23.7200    0.7080   -2.7610 C   0  0  0  0  0  0  0  0  0  0  0  0
   23.6830    1.2420   -4.0580 C   0  0  0  0  0  0  0  0  0  0  0  0
   23.4910    0.6050   -4.8820 H   0  0  0  0  0  0  0  0  0  0  0  0
   23.8910    2.5960   -4.2710 C   0  0  0  0  0  0  0  0  0  0  0  0
   23.8700    2.9930   -5.2540 H   0  0  0  0  0  0  0  0  0  0  0  0
   24.1260    3.4340   -3.1740 C   0  0  0  0  0  0  0  0  0  0  0  0
   24.3240    4.8110   -3.3450 N   0  0  0  0  0  0  0  0  0  0  0  0
   24.9830    5.2670   -2.6970 H   0  0  0  0  0  0  0  0  0  0  0  0
   23.3720    5.6630   -3.8990 C   0  0  0  0  0  0  0  0  0  0  0  0
   22.3060    5.1450   -4.5440 N   0  0  0  0  0  0  0  0  0  0  0  0
   21.3890    5.9920   -5.0050 C   0  0  0  0  0  0  0  0  0  0  0  0
   20.5490    5.6110   -5.5240 H   0  0  0  0  0  0  0  0  0  0  0  0
   21.5480    7.3460   -4.7990 C   0  0  0  0  0  0  0  0  0  0  0  0
   20.6090    8.1950   -5.2580 F   0  0  0  0  0  0  0  0  0  0  0  0
   22.6680    7.8290   -4.1180 C   0  0  0  0  0  0  0  0  0  0  0  0
   22.7880    9.2040   -3.8800 N   0  0  0  0  0  0  0  0  0  0  0  0
   22.0640    9.7710   -4.3480 H   0  0  0  0  0  0  0  0  0  0  0  0
   23.9050    9.9570   -3.3990 C   0  0  0  0  0  0  0  0  0  0  0  0
   24.2720   11.0460   -4.1900 C   0  0  0  0  0  0  0  0  0  0  0  0
   23.7820   11.2210   -5.1130 H   0  0  0  0  0  0  0  0  0  0  0  0
   25.2810   11.9080   -3.7730 C   0  0  0  0  0  0  0  0  0  0  0  0
   25.5600   12.7300   -4.3800 H   0  0  0  0  0  0  0  0  0  0  0  0
   25.9210   11.6980   -2.5560 C   0  0  0  0  0  0  0  0  0  0  0  0
   26.6790   12.3660   -2.2380 H   0  0  0  0  0  0  0  0  0  0  0  0
   25.5680   10.6170   -1.7540 C   0  0  0  0  0  0  0  0  0  0  0  0
   26.0530   10.4910   -0.8230 H   0  0  0  0  0  0  0  0  0  0  0  0
   24.5800    9.7210   -2.1770 C   0  0  0  0  0  0  0  0  0  0  0  0
   24.2470    8.5930   -1.3870 N   0  0  0  0  0  0  0  0  0  0  0  0
   23.6270    7.9990   -1.9570 H   0  0  0  0  0  0  0  0  0  0  0  0
   25.5210    7.6190   -0.8750 S   0  0  0  0  0  0  0  0  0  0  0  0
   26.5830    7.4590   -2.3000 C   0  0  0  0  0  0  0  0  0  0  0  0
   26.9880    8.3980   -2.6440 H   0  0  0  0  0  0  0  0  0  0  0  0
   26.1000    7.0220   -3.1600 H   0  0  0  0  0  0  0  0  0  0  0  0
   27.4440    6.8320   -2.1200 H   0  0  0  0  0  0  0  0  0  0  0  0
   26.2560    8.2780    0.1480 O   0  0  0  0  0  0  0  0  0  0  0  0
   25.0130    6.3310   -0.5490 O   0  0  0  0  0  0  0  0  0  0  0  0
   23.5910    6.9710   -3.6900 N   0  0  0  0  0  0  0  0  0  0  0  0
   24.1630    2.9190   -1.8750 C   0  0  0  0  0  0  0  0  0  0  0  0
   24.3410    3.5620   -1.0520 H   0  0  0  0  0  0  0  0  0  0  0  0
   23.9480    1.5640   -1.6730 C   0  0  0  0  0  0  0  0  0  0  0  0
   23.9580    1.1710   -0.6890 H   0  0  0  0  0  0  0  0  0  0  0  0
   24.1150   -3.0110   -3.3300 C   0  0  0  0  0  0  0  0  0  0  0  0
   23.1390   -3.3380   -3.0920 H   0  0  0  0  0  0  0  0  0  0  0  0
   25.0100   -3.9260   -3.8600 C   0  0  0  0  0  0  0  0  0  0  0  0
   24.6950   -4.9150   -4.0520 H   0  0  0  0  0  0  0  0  0  0  0  0
  1  2  1  0  0  0  0
  1  3  3  0  0  0  0
  3  4  1  0  0  0  0
  4  5  1  0  0  0  0
  4  6  1  0  0  0  0
  4  7  1  0  0  0  0
  7  8  1  0  0  0  0
  7  9  1  0  0  0  0
  7 10  1  0  0  0  0
 10 11  1  0  0  0  0
 10 12  1  0  0  0  0
 10 13  1  0  0  0  0
 13 14  2  0  0  0  0
 13 15  1  0  0  0  0
 15 16  1  0  0  0  0
 15 17  1  0  0  0  0
 17 18  1  0  0  0  0
 17 68  2  0  0  0  0
 18 19  1  0  0  0  0
 18 20  2  0  0  0  0
 20 21  1  0  0  0  0
 20 22  1  0  0  0  0
 22 23  1  0  0  0  0
 22 66  2  0  0  0  0
 23 24  2  0  0  0  0
 23 25  1  0  0  0  0
 25 26  1  0  0  0  0
 25 64  2  0  0  0  0
 26 27  1  0  0  0  0
 26 28  2  0  0  0  0
 28 29  1  0  0  0  0
 28 30  1  0  0  0  0
 30 31  1  0  0  0  0
 30 62  2  0  0  0  0
 31 32  1  0  0  0  0
 31 33  1  0  0  0  0
 33 34  1  0  0  0  0
 33 61  2  0  0  0  0
 34 35  2  0  0  0  0
 35 36  1  0  0  0  0
 35 37  1  0  0  0  0
 37 38  1  0  0  0  0
 37 39  2  0  0  0  0
 39 40  1  0  0  0  0
 39 61  1  0  0  0  0
 40 41  1  0  0  0  0
 40 42  1  0  0  0  0
 42 43  1  0  0  0  0
 42 51  2  0  0  0  0
 43 44  1  0  0  0  0
 43 45  2  0  0  0  0
 45 46  1  0  0  0  0
 45 47  1  0  0  0  0
 47 48  1  0  0  0  0
 47 49  2  0  0  0  0
 49 50  1  0  0  0  0
 49 51  1  0  0  0  0
 51 52  1  0  0  0  0
 52 53  1  0  0  0  0
 52 54  1  0  0  0  0
 54 55  1  0  0  0  0
 54 59  2  0  0  0  0
 54 60  2  0  0  0  0
 55 56  1  0  0  0  0
 55 57  1  0  0  0  0
 55 58  1  0  0  0  0
 62 63  1  0  0  0  0
 62 64  1  0  0  0  0
 64 65  1  0  0  0  0
 66 67  1  0  0  0  0
 66 68  1  0  0  0  0
 68 69  1  0  0  0  0
M  END
>  <rseq>
1

>  <mseq>
3

>  <S>
-8.7656937

>  <rmsd_refine>
1.6926636

>  <E_conf>
-135.91864

>  <E_place>
-62.30788

>  <E_score1>
-12.268147

>  <E_refine>
-55.894196

>  <E_score2>
-8.7656937

>  <Standard ValuenM>
26.4

>  <PLIF_pronum>
1

>  <PLIF_raw>
[[14,15,25,64,62,30,28,26],[5555,5132,6925,6925,6925,6925,6925,6925],[20201,10157,221182,221182,221182,221182,221182,221182],[9,1,10,10,10,10,10,10],[1.837493679,1.3,0.6,0.6,0.6,0.6,0.6,0.6]]

>  <FP:PLIF>
7 3 14

>  <PLIF_ligidx>
[15,14,[25,64,62,30,28,26]]

$$$$
