C#CCCCC(=O)Nc1ccc(C(=O)c2ccc(Nc3ncc(F)c(Nc4ccccc4NS(C)(=O)=O)n3)cc2)cc1
  MOE2019           3D

 69 72  0  0  0  0  0  0  0  0999 V2000
   30.8860   -6.2780   -1.8030 C   0  0  0  0  0  0  0  0  0  0  0  0
   31.5750   -5.7690   -1.2230 H   0  0  0  0  0  0  0  0  0  0  0  0
   30.0970   -6.8700   -2.4730 C   0  0  0  0  0  0  0  0  0  0  0  0
   29.1260   -7.6200   -3.3000 C   0  0  0  0  0  0  0  0  0  0  0  0
   28.7470   -8.4420   -2.7070 H   0  0  0  0  0  0  0  0  0  0  0  0
   29.6060   -7.9550   -4.2010 H   0  0  0  0  0  0  0  0  0  0  0  0
   27.9490   -6.6890   -3.6530 C   0  0  0  0  0  0  0  0  0  0  0  0
   27.5590   -6.2170   -2.7490 H   0  0  0  0  0  0  0  0  0  0  0  0
   27.1720   -7.2950   -4.1110 H   0  0  0  0  0  0  0  0  0  0  0  0
   28.3650   -5.6340   -4.7030 C   0  0  0  0  0  0  0  0  0  0  0  0
   28.5090   -6.1120   -5.6630 H   0  0  0  0  0  0  0  0  0  0  0  0
   29.2340   -5.0870   -4.3630 H   0  0  0  0  0  0  0  0  0  0  0  0
   27.1820   -4.6920   -4.7760 C   0  0  0  0  0  0  0  0  0  0  0  0
   26.1630   -4.9350   -5.4060 O   0  0  0  0  0  0  0  0  0  0  0  0
   27.3200   -3.5480   -4.0220 N   0  0  0  0  0  0  0  0  0  0  0  0
   28.2690   -3.3590   -3.6600 H   0  0  0  0  0  0  0  0  0  0  0  0
   26.3200   -2.6300   -3.6500 C   0  0  0  0  0  0  0  0  0  0  0  0
   26.7120   -1.3060   -3.4460 C   0  0  0  0  0  0  0  0  0  0  0  0
   27.7170   -1.0190   -3.6030 H   0  0  0  0  0  0  0  0  0  0  0  0
   25.7800   -0.3690   -3.0320 C   0  0  0  0  0  0  0  0  0  0  0  0
   26.0830    0.6360   -2.8890 H   0  0  0  0  0  0  0  0  0  0  0  0
   24.4500   -0.7440   -2.7920 C   0  0  0  0  0  0  0  0  0  0  0  0
   23.4800    0.2390   -2.3370 C   0  0  0  0  0  0  0  0  0  0  0  0
   22.5870   -0.0910   -1.5690 O   0  0  0  0  0  0  0  0  0  0  0  0
   23.5640    1.6160   -2.7840 C   0  0  0  0  0  0  0  0  0  0  0  0
   23.5040    1.9180   -4.1540 C   0  0  0  0  0  0  0  0  0  0  0  0
   23.4000    1.1360   -4.8620 H   0  0  0  0  0  0  0  0  0  0  0  0
   23.5650    3.2320   -4.5900 C   0  0  0  0  0  0  0  0  0  0  0  0
   23.5080    3.4550   -5.6250 H   0  0  0  0  0  0  0  0  0  0  0  0
   23.7000    4.2630   -3.6550 C   0  0  0  0  0  0  0  0  0  0  0  0
   23.7060    5.5790   -4.1390 N   0  0  0  0  0  0  0  0  0  0  0  0
   23.1740    5.7650   -5.0060 H   0  0  0  0  0  0  0  0  0  0  0  0
   24.3890    6.6760   -3.6270 C   0  0  0  0  0  0  0  0  0  0  0  0
   25.4170    6.5140   -2.7660 N   0  0  0  0  0  0  0  0  0  0  0  0
   26.0580    7.6110   -2.3550 C   0  0  0  0  0  0  0  0  0  0  0  0
   26.8720    7.5130   -1.6840 H   0  0  0  0  0  0  0  0  0  0  0  0
   25.6530    8.8510   -2.8120 C   0  0  0  0  0  0  0  0  0  0  0  0
   26.3010    9.9530   -2.3940 F   0  0  0  0  0  0  0  0  0  0  0  0
   24.5780    8.9550   -3.6980 C   0  0  0  0  0  0  0  0  0  0  0  0
   24.1560   10.1970   -4.1970 N   0  0  0  0  0  0  0  0  0  0  0  0
   24.8010   10.9820   -4.0150 H   0  0  0  0  0  0  0  0  0  0  0  0
   23.3120   10.3190   -5.3420 C   0  0  0  0  0  0  0  0  0  0  0  0
   23.8570   10.8820   -6.4950 C   0  0  0  0  0  0  0  0  0  0  0  0
   24.8540   11.2380   -6.4930 H   0  0  0  0  0  0  0  0  0  0  0  0
   23.0950   10.9600   -7.6580 C   0  0  0  0  0  0  0  0  0  0  0  0
   23.5160   11.3720   -8.5390 H   0  0  0  0  0  0  0  0  0  0  0  0
   21.7820   10.4940   -7.6690 C   0  0  0  0  0  0  0  0  0  0  0  0
   21.2110   10.5510   -8.5590 H   0  0  0  0  0  0  0  0  0  0  0  0
   21.2150    9.9620   -6.5140 C   0  0  0  0  0  0  0  0  0  0  0  0
   20.2090    9.6310   -6.5300 H   0  0  0  0  0  0  0  0  0  0  0  0
   21.9710    9.8800   -5.3410 C   0  0  0  0  0  0  0  0  0  0  0  0
   21.4010    9.3970   -4.1420 N   0  0  0  0  0  0  0  0  0  0  0  0
   22.1220    9.2840   -3.4150 H   0  0  0  0  0  0  0  0  0  0  0  0
   20.4360    8.0290   -4.2070 S   0  0  0  0  0  0  0  0  0  0  0  0
   20.6330    7.2690   -2.6060 C   0  0  0  0  0  0  0  0  0  0  0  0
   20.0680    6.3530   -2.5020 H   0  0  0  0  0  0  0  0  0  0  0  0
   20.3050    7.8940   -1.7870 H   0  0  0  0  0  0  0  0  0  0  0  0
   21.6530    6.9880   -2.3820 H   0  0  0  0  0  0  0  0  0  0  0  0
   19.0800    8.4280   -4.3590 O   0  0  0  0  0  0  0  0  0  0  0  0
   20.9350    7.1360   -5.1960 O   0  0  0  0  0  0  0  0  0  0  0  0
   23.9510    7.8510   -4.0870 N   0  0  0  0  0  0  0  0  0  0  0  0
   23.7710    3.9790   -2.2850 C   0  0  0  0  0  0  0  0  0  0  0  0
   23.8600    4.7610   -1.5770 H   0  0  0  0  0  0  0  0  0  0  0  0
   23.7010    2.6610   -1.8580 C   0  0  0  0  0  0  0  0  0  0  0  0
   23.7460    2.4410   -0.8220 H   0  0  0  0  0  0  0  0  0  0  0  0
   24.0790   -2.0840   -2.9830 C   0  0  0  0  0  0  0  0  0  0  0  0
   23.0860   -2.3820   -2.7790 H   0  0  0  0  0  0  0  0  0  0  0  0
   24.9990   -3.0260   -3.4200 C   0  0  0  0  0  0  0  0  0  0  0  0
   24.7040   -4.0350   -3.5490 H   0  0  0  0  0  0  0  0  0  0  0  0
  1  2  1  0  0  0  0
  1  3  3  0  0  0  0
  3  4  1  0  0  0  0
  4  5  1  0  0  0  0
  4  6  1  0  0  0  0
  4  7  1  0  0  0  0
  7  8  1  0  0  0  0
  7  9  1  0  0  0  0
  7 10  1  0  0  0  0
 10 11  1  0  0  0  0
 10 12  1  0  0  0  0
 10 13  1  0  0  0  0
 13 14  2  0  0  0  0
 13 15  1  0  0  0  0
 15 16  1  0  0  0  0
 15 17  1  0  0  0  0
 17 18  1  0  0  0  0
 17 68  2  0  0  0  0
 18 19  1  0  0  0  0
 18 20  2  0  0  0  0
 20 21  1  0  0  0  0
 20 22  1  0  0  0  0
 22 23  1  0  0  0  0
 22 66  2  0  0  0  0
 23 24  2  0  0  0  0
 23 25  1  0  0  0  0
 25 26  1  0  0  0  0
 25 64  2  0  0  0  0
 26 27  1  0  0  0  0
 26 28  2  0  0  0  0
 28 29  1  0  0  0  0
 28 30  1  0  0  0  0
 30 31  1  0  0  0  0
 30 62  2  0  0  0  0
 31 32  1  0  0  0  0
 31 33  1  0  0  0  0
 33 34  1  0  0  0  0
 33 61  2  0  0  0  0
 34 35  2  0  0  0  0
 35 36  1  0  0  0  0
 35 37  1  0  0  0  0
 37 38  1  0  0  0  0
 37 39  2  0  0  0  0
 39 40  1  0  0  0  0
 39 61  1  0  0  0  0
 40 41  1  0  0  0  0
 40 42  1  0  0  0  0
 42 43  1  0  0  0  0
 42 51  2  0  0  0  0
 43 44  1  0  0  0  0
 43 45  2  0  0  0  0
 45 46  1  0  0  0  0
 45 47  1  0  0  0  0
 47 48  1  0  0  0  0
 47 49  2  0  0  0  0
 49 50  1  0  0  0  0
 49 51  1  0  0  0  0
 51 52  1  0  0  0  0
 52 53  1  0  0  0  0
 52 54  1  0  0  0  0
 54 55  1  0  0  0  0
 54 59  2  0  0  0  0
 54 60  2  0  0  0  0
 55 56  1  0  0  0  0
 55 57  1  0  0  0  0
 55 58  1  0  0  0  0
 62 63  1  0  0  0  0
 62 64  1  0  0  0  0
 64 65  1  0  0  0  0
 66 67  1  0  0  0  0
 66 68  1  0  0  0  0
 68 69  1  0  0  0  0
M  END
>  <rseq>
1

>  <mseq>
3

>  <S>
-8.3249578

>  <rmsd_refine>
2.7007103

>  <E_conf>
-144.18277

>  <E_place>
-98.771912

>  <E_score1>
-15.541393

>  <E_refine>
-51.068233

>  <E_score2>
-8.3249578

>  <Standard ValuenM>
26.4

>  <PLIF_pronum>
1

>  <PLIF_raw>
[[15,59,42,51,49,47,45,43],[5132,7204,4995,4995,4995,4995,4995,4995],[10157,221277,10149,10149,10149,10149,10149,10149],[1,6,10,10,10,10,10,10],[2.7,1.6,0.8,0.8,0.8,0.8,0.8,0.8]]

>  <FP:PLIF>
15 7 16 17 18

>  <PLIF_ligidx>
[[42,51,49,47,45,43],15,15,59,59]

$$$$
