NC(=O)c1cccc(Cn2ccc3cc(-c4cc(-c5ccccc5)cc(=O)n4O)cnc32)c1
  MOE2019           3D

 53 57  0  0  0  0  0  0  0  0999 V2000
   19.9260    3.9410    2.5490 N   0  0  0  0  0  0  0  0  0  0  0  0
   19.8300    4.8250    3.0720 H   0  0  0  0  0  0  0  0  0  0  0  0
   19.2700    3.1710    2.7440 H   0  0  0  0  0  0  0  0  0  0  0  0
   20.9290    3.7950    1.6390 C   0  0  0  0  0  0  0  0  0  0  0  0
   21.6840    4.7480    1.4860 O   0  0  0  0  0  0  0  0  0  0  0  0
   21.0640    2.5360    0.9030 C   0  0  0  0  0  0  0  0  0  0  0  0
   20.0160    1.6070    0.8360 C   0  0  0  0  0  0  0  0  0  0  0  0
   19.0950    1.7960    1.3230 H   0  0  0  0  0  0  0  0  0  0  0  0
   20.1700    0.4260    0.1230 C   0  0  0  0  0  0  0  0  0  0  0  0
   19.3740   -0.2730    0.0830 H   0  0  0  0  0  0  0  0  0  0  0  0
   21.3650    0.1570   -0.5370 C   0  0  0  0  0  0  0  0  0  0  0  0
   21.4700   -0.7410   -1.0840 H   0  0  0  0  0  0  0  0  0  0  0  0
   22.4260    1.0550   -0.4680 C   0  0  0  0  0  0  0  0  0  0  0  0
   23.7900    0.7340   -1.0520 C   0  0  0  0  0  0  0  0  0  0  0  0
   24.2700    0.1300   -0.3070 H   0  0  0  0  0  0  0  0  0  0  0  0
   24.3200    1.6520   -1.2660 H   0  0  0  0  0  0  0  0  0  0  0  0
   23.7130   -0.0600   -2.2800 N   0  0  0  0  0  0  0  0  0  0  0  0
   23.0310    0.2890   -3.4270 C   0  0  0  0  0  0  0  0  0  0  0  0
   22.4310    1.1610   -3.4760 H   0  0  0  0  0  0  0  0  0  0  0  0
   23.2850   -0.6430   -4.3800 C   0  0  0  0  0  0  0  0  0  0  0  0
   22.8900   -0.6340   -5.3630 H   0  0  0  0  0  0  0  0  0  0  0  0
   24.1560   -1.6150   -3.8320 C   0  0  0  0  0  0  0  0  0  0  0  0
   24.7550   -2.7810   -4.3220 C   0  0  0  0  0  0  0  0  0  0  0  0
   24.5690   -3.0600   -5.3160 H   0  0  0  0  0  0  0  0  0  0  0  0
   25.5950   -3.5250   -3.4910 C   0  0  0  0  0  0  0  0  0  0  0  0
   26.3400   -4.7370   -3.9470 C   0  0  0  0  0  0  0  0  0  0  0  0
   27.4430   -5.2510   -3.2850 C   0  0  0  0  0  0  0  0  0  0  0  0
   27.7580   -4.8260   -2.3760 H   0  0  0  0  0  0  0  0  0  0  0  0
   28.2090   -6.3500   -3.7800 C   0  0  0  0  0  0  0  0  0  0  0  0
   29.3220   -6.9210   -3.0210 C   0  0  0  0  0  0  0  0  0  0  0  0
   30.2070   -6.1050   -2.3060 C   0  0  0  0  0  0  0  0  0  0  0  0
   30.0780   -5.0550   -2.3060 H   0  0  0  0  0  0  0  0  0  0  0  0
   31.2730   -6.6590   -1.6090 C   0  0  0  0  0  0  0  0  0  0  0  0
   31.9350   -6.0330   -1.0740 H   0  0  0  0  0  0  0  0  0  0  0  0
   31.4800   -8.0340   -1.6200 C   0  0  0  0  0  0  0  0  0  0  0  0
   32.2990   -8.4540   -1.0950 H   0  0  0  0  0  0  0  0  0  0  0  0
   30.6100   -8.8580   -2.3230 C   0  0  0  0  0  0  0  0  0  0  0  0
   30.7690   -9.9060   -2.3350 H   0  0  0  0  0  0  0  0  0  0  0  0
   29.5340   -8.3080   -3.0100 C   0  0  0  0  0  0  0  0  0  0  0  0
   28.8730   -8.9510   -3.5320 H   0  0  0  0  0  0  0  0  0  0  0  0
   27.8870   -6.8740   -5.0020 C   0  0  0  0  0  0  0  0  0  0  0  0
   28.4720   -7.6410   -5.4370 H   0  0  0  0  0  0  0  0  0  0  0  0
   26.7520   -6.4250   -5.7170 C   0  0  0  0  0  0  0  0  0  0  0  0
   26.4130   -6.8850   -6.8240 O   0  0  0  0  0  0  0  0  0  0  0  0
   25.9600   -5.4450   -5.1150 N   0  0  0  0  0  0  0  0  0  0  0  0
   24.6880   -5.3230   -5.6450 O   0  0  0  0  0  0  0  0  0  0  0  0
   24.0970   -5.1070   -4.8930 H   0  0  0  0  0  0  0  0  0  0  0  0
   25.7700   -3.0360   -2.1570 C   0  0  0  0  0  0  0  0  0  0  0  0
   26.3650   -3.5840   -1.4780 H   0  0  0  0  0  0  0  0  0  0  0  0
   25.2230   -1.9240   -1.6910 N   0  0  0  0  0  0  0  0  0  0  0  0
   24.4180   -1.2320   -2.5260 C   0  0  0  0  0  0  0  0  0  0  0  0
   22.2680    2.2390    0.2480 C   0  0  0  0  0  0  0  0  0  0  0  0
   23.0770    2.9210    0.3130 H   0  0  0  0  0  0  0  0  0  0  0  0
  1  2  1  0  0  0  0
  1  3  1  0  0  0  0
  1  4  1  0  0  0  0
  4  5  2  0  0  0  0
  4  6  1  0  0  0  0
  6  7  1  0  0  0  0
  6 52  2  0  0  0  0
  7  8  1  0  0  0  0
  7  9  2  0  0  0  0
  9 10  1  0  0  0  0
  9 11  1  0  0  0  0
 11 12  1  0  0  0  0
 11 13  2  0  0  0  0
 13 14  1  0  0  0  0
 13 52  1  0  0  0  0
 14 15  1  0  0  0  0
 14 16  1  0  0  0  0
 14 17  1  0  0  0  0
 17 18  1  0  0  0  0
 17 51  1  0  0  0  0
 18 19  1  0  0  0  0
 18 20  2  0  0  0  0
 20 21  1  0  0  0  0
 20 22  1  0  0  0  0
 22 23  1  0  0  0  0
 22 51  2  0  0  0  0
 23 24  1  0  0  0  0
 23 25  2  0  0  0  0
 25 26  1  0  0  0  0
 25 48  1  0  0  0  0
 26 27  2  0  0  0  0
 26 45  1  0  0  0  0
 27 28  1  0  0  0  0
 27 29  1  0  0  0  0
 29 30  1  0  0  0  0
 29 41  2  0  0  0  0
 30 31  1  0  0  0  0
 30 39  2  0  0  0  0
 31 32  1  0  0  0  0
 31 33  2  0  0  0  0
 33 34  1  0  0  0  0
 33 35  1  0  0  0  0
 35 36  1  0  0  0  0
 35 37  2  0  0  0  0
 37 38  1  0  0  0  0
 37 39  1  0  0  0  0
 39 40  1  0  0  0  0
 41 42  1  0  0  0  0
 41 43  1  0  0  0  0
 43 44  2  0  0  0  0
 43 45  1  0  0  0  0
 45 46  1  0  0  0  0
 46 47  1  0  0  0  0
 48 49  1  0  0  0  0
 48 50  2  0  0  0  0
 50 51  1  0  0  0  0
 52 53  1  0  0  0  0
M  END
>  <rseq>
1

>  <mseq>
4

>  <S>
-9.5904694

>  <rmsd_refine>
2.2762346

>  <E_conf>
65.682861

>  <E_place>
-57.904881

>  <E_score1>
-13.073513

>  <E_refine>
-68.89933

>  <E_score2>
-9.5904694

>  <Standard ValuenM>
40

>  <PLIF_pronum>
1

>  <PLIF_raw>
[[44,14,44,30,39,37,35,33,31],[5555,899,355,852,852,852,852,852,852],[20201,65,33,62,62,62,62,62,62],[9,1,2,10,10,10,10,10,10],[4.344936394,0.8,1.4,0.7,0.7,0.7,0.7,0.7,0.7]]

>  <FP:PLIF>
1 2 20 3 4

>  <PLIF_ligidx>
[44,[30,39,37,35,33,31],14,44,44]

$$$$
