NC(=O)c1cccc(Cn2ccc3cc(-c4cc(-c5ccccc5)cc(=O)n4O)cnc32)c1
  MOE2019           3D

 53 57  0  0  0  0  0  0  0  0999 V2000
   31.7970   -7.8620   -1.3210 N   0  0  0  0  0  0  0  0  0  0  0  0
   32.5380   -7.8340   -0.6020 H   0  0  0  0  0  0  0  0  0  0  0  0
   31.8350   -8.5960   -2.0430 H   0  0  0  0  0  0  0  0  0  0  0  0
   30.8960   -6.8430   -1.3990 C   0  0  0  0  0  0  0  0  0  0  0  0
   30.9570   -5.9680   -0.5460 O   0  0  0  0  0  0  0  0  0  0  0  0
   29.9090   -6.8510   -2.4740 C   0  0  0  0  0  0  0  0  0  0  0  0
   29.4420   -8.0550   -3.0050 C   0  0  0  0  0  0  0  0  0  0  0  0
   29.7930   -8.9800   -2.6280 H   0  0  0  0  0  0  0  0  0  0  0  0
   28.5160   -8.0460   -4.0350 C   0  0  0  0  0  0  0  0  0  0  0  0
   28.1940   -8.9680   -4.4300 H   0  0  0  0  0  0  0  0  0  0  0  0
   28.0400   -6.8440   -4.5530 C   0  0  0  0  0  0  0  0  0  0  0  0
   27.3540   -6.8580   -5.3600 H   0  0  0  0  0  0  0  0  0  0  0  0
   28.4810   -5.6300   -4.0280 C   0  0  0  0  0  0  0  0  0  0  0  0
   28.0370   -4.2980   -4.6280 C   0  0  0  0  0  0  0  0  0  0  0  0
   27.9990   -4.3950   -5.7040 H   0  0  0  0  0  0  0  0  0  0  0  0
   28.7430   -3.5470   -4.3190 H   0  0  0  0  0  0  0  0  0  0  0  0
   26.7000   -3.9060   -4.1430 N   0  0  0  0  0  0  0  0  0  0  0  0
   25.5540   -4.6710   -4.2310 C   0  0  0  0  0  0  0  0  0  0  0  0
   25.5860   -5.6760   -4.5570 H   0  0  0  0  0  0  0  0  0  0  0  0
   24.4890   -3.9160   -3.8570 C   0  0  0  0  0  0  0  0  0  0  0  0
   23.4860   -4.2460   -3.8100 H   0  0  0  0  0  0  0  0  0  0  0  0
   24.9480   -2.6110   -3.5770 C   0  0  0  0  0  0  0  0  0  0  0  0
   24.3210   -1.3920   -3.2920 C   0  0  0  0  0  0  0  0  0  0  0  0
   23.2700   -1.3370   -3.1780 H   0  0  0  0  0  0  0  0  0  0  0  0
   25.1140   -0.2470   -3.2380 C   0  0  0  0  0  0  0  0  0  0  0  0
   24.5640    1.1140   -3.1980 C   0  0  0  0  0  0  0  0  0  0  0  0
   25.0150    2.0990   -2.3470 C   0  0  0  0  0  0  0  0  0  0  0  0
   25.7580    1.8780   -1.6320 H   0  0  0  0  0  0  0  0  0  0  0  0
   24.5390    3.4390   -2.4170 C   0  0  0  0  0  0  0  0  0  0  0  0
   24.9840    4.4360   -1.4500 C   0  0  0  0  0  0  0  0  0  0  0  0
   25.4630    5.6820   -1.8750 C   0  0  0  0  0  0  0  0  0  0  0  0
   25.5240    5.9010   -2.9100 H   0  0  0  0  0  0  0  0  0  0  0  0
   25.8530    6.6410   -0.9490 C   0  0  0  0  0  0  0  0  0  0  0  0
   26.2110    7.5820   -1.2800 H   0  0  0  0  0  0  0  0  0  0  0  0
   25.7730    6.3690    0.4140 C   0  0  0  0  0  0  0  0  0  0  0  0
   26.0650    7.1030    1.1190 H   0  0  0  0  0  0  0  0  0  0  0  0
   25.3070    5.1320    0.8480 C   0  0  0  0  0  0  0  0  0  0  0  0
   25.2460    4.9250    1.8860 H   0  0  0  0  0  0  0  0  0  0  0  0
   24.9140    4.1720   -0.0770 C   0  0  0  0  0  0  0  0  0  0  0  0
   24.5490    3.2360    0.2640 H   0  0  0  0  0  0  0  0  0  0  0  0
   23.6510    3.7760   -3.4050 C   0  0  0  0  0  0  0  0  0  0  0  0
   23.3030    4.7720   -3.5020 H   0  0  0  0  0  0  0  0  0  0  0  0
   23.1570    2.8030   -4.3160 C   0  0  0  0  0  0  0  0  0  0  0  0
   22.3610    3.0580   -5.2390 O   0  0  0  0  0  0  0  0  0  0  0  0
   23.5860    1.4890   -4.1380 N   0  0  0  0  0  0  0  0  0  0  0  0
   23.0120    0.5400   -4.9720 O   0  0  0  0  0  0  0  0  0  0  0  0
   22.5030    1.0470   -5.6390 H   0  0  0  0  0  0  0  0  0  0  0  0
   26.5290   -0.4060   -3.3010 C   0  0  0  0  0  0  0  0  0  0  0  0
   27.1500    0.4450   -3.1800 H   0  0  0  0  0  0  0  0  0  0  0  0
   27.1220   -1.5540   -3.5540 N   0  0  0  0  0  0  0  0  0  0  0  0
   26.3290   -2.6310   -3.7340 C   0  0  0  0  0  0  0  0  0  0  0  0
   29.4100   -5.6490   -2.9890 C   0  0  0  0  0  0  0  0  0  0  0  0
   29.7750   -4.7430   -2.5950 H   0  0  0  0  0  0  0  0  0  0  0  0
  1  2  1  0  0  0  0
  1  3  1  0  0  0  0
  1  4  1  0  0  0  0
  4  5  2  0  0  0  0
  4  6  1  0  0  0  0
  6  7  1  0  0  0  0
  6 52  2  0  0  0  0
  7  8  1  0  0  0  0
  7  9  2  0  0  0  0
  9 10  1  0  0  0  0
  9 11  1  0  0  0  0
 11 12  1  0  0  0  0
 11 13  2  0  0  0  0
 13 14  1  0  0  0  0
 13 52  1  0  0  0  0
 14 15  1  0  0  0  0
 14 16  1  0  0  0  0
 14 17  1  0  0  0  0
 17 18  1  0  0  0  0
 17 51  1  0  0  0  0
 18 19  1  0  0  0  0
 18 20  2  0  0  0  0
 20 21  1  0  0  0  0
 20 22  1  0  0  0  0
 22 23  1  0  0  0  0
 22 51  2  0  0  0  0
 23 24  1  0  0  0  0
 23 25  2  0  0  0  0
 25 26  1  0  0  0  0
 25 48  1  0  0  0  0
 26 27  2  0  0  0  0
 26 45  1  0  0  0  0
 27 28  1  0  0  0  0
 27 29  1  0  0  0  0
 29 30  1  0  0  0  0
 29 41  2  0  0  0  0
 30 31  1  0  0  0  0
 30 39  2  0  0  0  0
 31 32  1  0  0  0  0
 31 33  2  0  0  0  0
 33 34  1  0  0  0  0
 33 35  1  0  0  0  0
 35 36  1  0  0  0  0
 35 37  2  0  0  0  0
 37 38  1  0  0  0  0
 37 39  1  0  0  0  0
 39 40  1  0  0  0  0
 41 42  1  0  0  0  0
 41 43  1  0  0  0  0
 43 44  2  0  0  0  0
 43 45  1  0  0  0  0
 45 46  1  0  0  0  0
 46 47  1  0  0  0  0
 48 49  1  0  0  0  0
 48 50  2  0  0  0  0
 50 51  1  0  0  0  0
 52 53  1  0  0  0  0
M  END
>  <rseq>
1

>  <mseq>
4

>  <S>
-7.1602564

>  <rmsd_refine>
1.5014307

>  <E_conf>
59.420563

>  <E_place>
-112.70403

>  <E_score1>
-12.656954

>  <E_refine>
-31.223902

>  <E_score2>
-7.1602564

>  <Standard ValuenM>
40

>  <PLIF_pronum>
1

>  <PLIF_raw>
[[1,14,52],[5499,5132,5132],[10180,10157,10157],[3,1,1],[3.7,0.6,0.6]]

>  <FP:PLIF>
7 21 22

>  <PLIF_ligidx>
[[14,52],1,1]

$$$$
