NC(=O)c1cccc(Cn2ccc3cc(-c4cc(-c5ccccc5)cc(=O)n4O)cnc32)c1
  MOE2019           3D

 53 57  0  0  0  0  0  0  0  0999 V2000
   32.0120   -8.1950   -1.2850 N   0  0  0  0  0  0  0  0  0  0  0  0
   32.7680   -8.1740   -0.5820 H   0  0  0  0  0  0  0  0  0  0  0  0
   32.0130   -8.9450   -1.9910 H   0  0  0  0  0  0  0  0  0  0  0  0
   31.1500   -7.1450   -1.3740 C   0  0  0  0  0  0  0  0  0  0  0  0
   31.2510   -6.2500   -0.5460 O   0  0  0  0  0  0  0  0  0  0  0  0
   30.1440   -7.1460   -2.4270 C   0  0  0  0  0  0  0  0  0  0  0  0
   29.6350   -8.3480   -2.9290 C   0  0  0  0  0  0  0  0  0  0  0  0
   29.9940   -9.2760   -2.5660 H   0  0  0  0  0  0  0  0  0  0  0  0
   28.6480   -8.3350   -3.9000 C   0  0  0  0  0  0  0  0  0  0  0  0
   28.2740   -9.2540   -4.2630 H   0  0  0  0  0  0  0  0  0  0  0  0
   28.1630   -7.1300   -4.3970 C   0  0  0  0  0  0  0  0  0  0  0  0
   27.4070   -7.1330   -5.1390 H   0  0  0  0  0  0  0  0  0  0  0  0
   28.6560   -5.9220   -3.9060 C   0  0  0  0  0  0  0  0  0  0  0  0
   28.0630   -4.6010   -4.3680 C   0  0  0  0  0  0  0  0  0  0  0  0
   27.5190   -4.7430   -5.2920 H   0  0  0  0  0  0  0  0  0  0  0  0
   28.8560   -3.8740   -4.4590 H   0  0  0  0  0  0  0  0  0  0  0  0
   27.1270   -4.1730   -3.3140 N   0  0  0  0  0  0  0  0  0  0  0  0
   26.5830   -4.9780   -2.3240 C   0  0  0  0  0  0  0  0  0  0  0  0
   26.7990   -6.0110   -2.2440 H   0  0  0  0  0  0  0  0  0  0  0  0
   25.8020   -4.2180   -1.5230 C   0  0  0  0  0  0  0  0  0  0  0  0
   25.3020   -4.5650   -0.6600 H   0  0  0  0  0  0  0  0  0  0  0  0
   25.8090   -2.9010   -2.0250 C   0  0  0  0  0  0  0  0  0  0  0  0
   25.1720   -1.7180   -1.6540 C   0  0  0  0  0  0  0  0  0  0  0  0
   24.5440   -1.6940   -0.8060 H   0  0  0  0  0  0  0  0  0  0  0  0
   25.4040   -0.5700   -2.4010 C   0  0  0  0  0  0  0  0  0  0  0  0
   24.6880    0.6890   -2.1190 C   0  0  0  0  0  0  0  0  0  0  0  0
   25.1810    1.9580   -2.3600 C   0  0  0  0  0  0  0  0  0  0  0  0
   26.1000    2.0880   -2.8650 H   0  0  0  0  0  0  0  0  0  0  0  0
   24.4900    3.1230   -1.9110 C   0  0  0  0  0  0  0  0  0  0  0  0
   24.8940    4.4610   -2.3200 C   0  0  0  0  0  0  0  0  0  0  0  0
   25.8560    5.1920   -1.6120 C   0  0  0  0  0  0  0  0  0  0  0  0
   26.3390    4.7620   -0.7770 H   0  0  0  0  0  0  0  0  0  0  0  0
   26.1660    6.4960   -1.9850 C   0  0  0  0  0  0  0  0  0  0  0  0
   26.8910    7.0480   -1.4460 H   0  0  0  0  0  0  0  0  0  0  0  0
   25.5190    7.0860   -3.0670 C   0  0  0  0  0  0  0  0  0  0  0  0
   25.7540    8.0810   -3.3500 H   0  0  0  0  0  0  0  0  0  0  0  0
   24.5670    6.3670   -3.7790 C   0  0  0  0  0  0  0  0  0  0  0  0
   24.0720    6.8160   -4.6000 H   0  0  0  0  0  0  0  0  0  0  0  0
   24.2620    5.0610   -3.4150 C   0  0  0  0  0  0  0  0  0  0  0  0
   23.5350    4.5210   -3.9650 H   0  0  0  0  0  0  0  0  0  0  0  0
   23.3960    2.9710   -1.0970 C   0  0  0  0  0  0  0  0  0  0  0  0
   22.9150    3.8170   -0.6800 H   0  0  0  0  0  0  0  0  0  0  0  0
   22.8520    1.6840   -0.8260 C   0  0  0  0  0  0  0  0  0  0  0  0
   21.8990    1.4660   -0.0530 O   0  0  0  0  0  0  0  0  0  0  0  0
   23.4200    0.6220   -1.5190 N   0  0  0  0  0  0  0  0  0  0  0  0
   22.6080   -0.4840   -1.7320 O   0  0  0  0  0  0  0  0  0  0  0  0
   23.1100   -1.0940   -2.3080 H   0  0  0  0  0  0  0  0  0  0  0  0
   26.4120   -0.6370   -3.4010 C   0  0  0  0  0  0  0  0  0  0  0  0
   26.7270    0.2580   -3.8630 H   0  0  0  0  0  0  0  0  0  0  0  0
   27.0000   -1.7570   -3.7820 N   0  0  0  0  0  0  0  0  0  0  0  0
   26.6630   -2.8820   -3.1180 C   0  0  0  0  0  0  0  0  0  0  0  0
   29.6450   -5.9370   -2.9260 C   0  0  0  0  0  0  0  0  0  0  0  0
   30.0190   -5.0240   -2.5430 H   0  0  0  0  0  0  0  0  0  0  0  0
  1  2  1  0  0  0  0
  1  3  1  0  0  0  0
  1  4  1  0  0  0  0
  4  5  2  0  0  0  0
  4  6  1  0  0  0  0
  6  7  1  0  0  0  0
  6 52  2  0  0  0  0
  7  8  1  0  0  0  0
  7  9  2  0  0  0  0
  9 10  1  0  0  0  0
  9 11  1  0  0  0  0
 11 12  1  0  0  0  0
 11 13  2  0  0  0  0
 13 14  1  0  0  0  0
 13 52  1  0  0  0  0
 14 15  1  0  0  0  0
 14 16  1  0  0  0  0
 14 17  1  0  0  0  0
 17 18  1  0  0  0  0
 17 51  1  0  0  0  0
 18 19  1  0  0  0  0
 18 20  2  0  0  0  0
 20 21  1  0  0  0  0
 20 22  1  0  0  0  0
 22 23  1  0  0  0  0
 22 51  2  0  0  0  0
 23 24  1  0  0  0  0
 23 25  2  0  0  0  0
 25 26  1  0  0  0  0
 25 48  1  0  0  0  0
 26 27  2  0  0  0  0
 26 45  1  0  0  0  0
 27 28  1  0  0  0  0
 27 29  1  0  0  0  0
 29 30  1  0  0  0  0
 29 41  2  0  0  0  0
 30 31  1  0  0  0  0
 30 39  2  0  0  0  0
 31 32  1  0  0  0  0
 31 33  2  0  0  0  0
 33 34  1  0  0  0  0
 33 35  1  0  0  0  0
 35 36  1  0  0  0  0
 35 37  2  0  0  0  0
 37 38  1  0  0  0  0
 37 39  1  0  0  0  0
 39 40  1  0  0  0  0
 41 42  1  0  0  0  0
 41 43  1  0  0  0  0
 43 44  2  0  0  0  0
 43 45  1  0  0  0  0
 45 46  1  0  0  0  0
 46 47  1  0  0  0  0
 48 49  1  0  0  0  0
 48 50  2  0  0  0  0
 50 51  1  0  0  0  0
 52 53  1  0  0  0  0
M  END
>  <rseq>
1

>  <mseq>
4

>  <S>
-7.1297326

>  <rmsd_refine>
0.80045587

>  <E_conf>
65.943367

>  <E_place>
-72.491486

>  <E_score1>
-14.131807

>  <E_refine>
-25.296696

>  <E_score2>
-7.1297326

>  <Standard ValuenM>
40

>  <PLIF_pronum>
1

>  <PLIF_raw>
[[1,52,6,52,13,11,9,7],[5499,5132,852,852,852,852,852,852],[10180,10157,62,62,62,62,62,62],[3,1,10,10,10,10,10,10],[3.5,0.5,0.5,0.5,0.5,0.5,0.5,0.5]]

>  <FP:PLIF>
2 7 21 22

>  <PLIF_ligidx>
[[6,52,13,11,9,7],52,1,1]

$$$$
