NC(=O)c1cccc(Cn2ccc3cc(-c4cc(-c5ccccc5)cc(=O)n4O)cnc32)c1
  MOE2019           3D

 53 57  0  0  0  0  0  0  0  0999 V2000
   31.2790   -6.2670   -0.5350 N   0  0  0  0  0  0  0  0  0  0  0  0
   32.0320   -6.2910    0.1710 H   0  0  0  0  0  0  0  0  0  0  0  0
   30.6850   -5.4300   -0.6120 H   0  0  0  0  0  0  0  0  0  0  0  0
   31.1820   -7.2770   -1.4370 C   0  0  0  0  0  0  0  0  0  0  0  0
   31.9420   -8.2290   -1.3090 O   0  0  0  0  0  0  0  0  0  0  0  0
   30.1580   -7.2020   -2.4670 C   0  0  0  0  0  0  0  0  0  0  0  0
   29.6280   -8.3860   -2.9800 C   0  0  0  0  0  0  0  0  0  0  0  0
   29.9900   -9.3220   -2.6390 H   0  0  0  0  0  0  0  0  0  0  0  0
   28.6260   -8.3470   -3.9340 C   0  0  0  0  0  0  0  0  0  0  0  0
   28.2410   -9.2570   -4.3020 H   0  0  0  0  0  0  0  0  0  0  0  0
   28.1510   -7.1290   -4.4080 C   0  0  0  0  0  0  0  0  0  0  0  0
   27.3850   -7.1130   -5.1400 H   0  0  0  0  0  0  0  0  0  0  0  0
   28.6690   -5.9340   -3.9100 C   0  0  0  0  0  0  0  0  0  0  0  0
   28.0930   -4.6010   -4.3580 C   0  0  0  0  0  0  0  0  0  0  0  0
   27.5580   -4.7230   -5.2900 H   0  0  0  0  0  0  0  0  0  0  0  0
   28.8920   -3.8790   -4.4300 H   0  0  0  0  0  0  0  0  0  0  0  0
   27.1480   -4.1780   -3.3090 N   0  0  0  0  0  0  0  0  0  0  0  0
   26.6060   -4.9910   -2.3220 C   0  0  0  0  0  0  0  0  0  0  0  0
   26.8270   -6.0230   -2.2450 H   0  0  0  0  0  0  0  0  0  0  0  0
   25.8170   -4.2390   -1.5220 C   0  0  0  0  0  0  0  0  0  0  0  0
   25.3130   -4.5900   -0.6630 H   0  0  0  0  0  0  0  0  0  0  0  0
   25.8160   -2.9220   -2.0220 C   0  0  0  0  0  0  0  0  0  0  0  0
   25.1670   -1.7470   -1.6470 C   0  0  0  0  0  0  0  0  0  0  0  0
   24.5380   -1.7260   -0.8000 H   0  0  0  0  0  0  0  0  0  0  0  0
   25.3830   -0.5970   -2.3920 C   0  0  0  0  0  0  0  0  0  0  0  0
   24.6420    0.6370   -2.0870 C   0  0  0  0  0  0  0  0  0  0  0  0
   25.1390    1.9190   -2.2010 C   0  0  0  0  0  0  0  0  0  0  0  0
   26.0770    2.0910   -2.6600 H   0  0  0  0  0  0  0  0  0  0  0  0
   24.4420    3.0330   -1.6440 C   0  0  0  0  0  0  0  0  0  0  0  0
   24.9170    4.3970   -1.8280 C   0  0  0  0  0  0  0  0  0  0  0  0
   25.4160    5.1310   -0.7460 C   0  0  0  0  0  0  0  0  0  0  0  0
   25.4840    4.6820    0.2110 H   0  0  0  0  0  0  0  0  0  0  0  0
   25.8070    6.4550   -0.9130 C   0  0  0  0  0  0  0  0  0  0  0  0
   26.1780    7.0070   -0.0880 H   0  0  0  0  0  0  0  0  0  0  0  0
   25.7020    7.0620   -2.1610 C   0  0  0  0  0  0  0  0  0  0  0  0
   25.9980    8.0710   -2.2880 H   0  0  0  0  0  0  0  0  0  0  0  0
   25.2020    6.3420   -3.2410 C   0  0  0  0  0  0  0  0  0  0  0  0
   25.1150    6.8090   -4.1890 H   0  0  0  0  0  0  0  0  0  0  0  0
   24.8230    5.0140   -3.0810 C   0  0  0  0  0  0  0  0  0  0  0  0
   24.4450    4.4730   -3.9100 H   0  0  0  0  0  0  0  0  0  0  0  0
   23.3040    2.8080   -0.9110 C   0  0  0  0  0  0  0  0  0  0  0  0
   22.8110    3.6080   -0.4220 H   0  0  0  0  0  0  0  0  0  0  0  0
   22.7330    1.5080   -0.8130 C   0  0  0  0  0  0  0  0  0  0  0  0
   21.7280    1.2230   -0.1330 O   0  0  0  0  0  0  0  0  0  0  0  0
   23.3460    0.5130   -1.5640 N   0  0  0  0  0  0  0  0  0  0  0  0
   22.5730   -0.5930   -1.8930 O   0  0  0  0  0  0  0  0  0  0  0  0
   23.1180   -1.1480   -2.4850 H   0  0  0  0  0  0  0  0  0  0  0  0
   26.3910   -0.6440   -3.3920 C   0  0  0  0  0  0  0  0  0  0  0  0
   26.6900    0.2600   -3.8490 H   0  0  0  0  0  0  0  0  0  0  0  0
   26.9950   -1.7570   -3.7740 N   0  0  0  0  0  0  0  0  0  0  0  0
   26.6720   -2.8910   -3.1130 C   0  0  0  0  0  0  0  0  0  0  0  0
   29.6720   -5.9760   -2.9430 C   0  0  0  0  0  0  0  0  0  0  0  0
   30.0650   -5.0700   -2.5630 H   0  0  0  0  0  0  0  0  0  0  0  0
  1  2  1  0  0  0  0
  1  3  1  0  0  0  0
  1  4  1  0  0  0  0
  4  5  2  0  0  0  0
  4  6  1  0  0  0  0
  6  7  1  0  0  0  0
  6 52  2  0  0  0  0
  7  8  1  0  0  0  0
  7  9  2  0  0  0  0
  9 10  1  0  0  0  0
  9 11  1  0  0  0  0
 11 12  1  0  0  0  0
 11 13  2  0  0  0  0
 13 14  1  0  0  0  0
 13 52  1  0  0  0  0
 14 15  1  0  0  0  0
 14 16  1  0  0  0  0
 14 17  1  0  0  0  0
 17 18  1  0  0  0  0
 17 51  1  0  0  0  0
 18 19  1  0  0  0  0
 18 20  2  0  0  0  0
 20 21  1  0  0  0  0
 20 22  1  0  0  0  0
 22 23  1  0  0  0  0
 22 51  2  0  0  0  0
 23 24  1  0  0  0  0
 23 25  2  0  0  0  0
 25 26  1  0  0  0  0
 25 48  1  0  0  0  0
 26 27  2  0  0  0  0
 26 45  1  0  0  0  0
 27 28  1  0  0  0  0
 27 29  1  0  0  0  0
 29 30  1  0  0  0  0
 29 41  2  0  0  0  0
 30 31  1  0  0  0  0
 30 39  2  0  0  0  0
 31 32  1  0  0  0  0
 31 33  2  0  0  0  0
 33 34  1  0  0  0  0
 33 35  1  0  0  0  0
 35 36  1  0  0  0  0
 35 37  2  0  0  0  0
 37 38  1  0  0  0  0
 37 39  1  0  0  0  0
 39 40  1  0  0  0  0
 41 42  1  0  0  0  0
 41 43  1  0  0  0  0
 43 44  2  0  0  0  0
 43 45  1  0  0  0  0
 45 46  1  0  0  0  0
 46 47  1  0  0  0  0
 48 49  1  0  0  0  0
 48 50  2  0  0  0  0
 50 51  1  0  0  0  0
 52 53  1  0  0  0  0
M  END
>  <rseq>
1

>  <mseq>
4

>  <S>
-6.985148

>  <rmsd_refine>
0.81341743

>  <E_conf>
64.772461

>  <E_place>
-98.481407

>  <E_score1>
-14.437244

>  <E_refine>
-23.594597

>  <E_score2>
-6.985148

>  <Standard ValuenM>
40

>  <PLIF_pronum>
1

>  <PLIF_raw>
[[1,52,6,52,13,11,9,7],[5499,5132,852,852,852,852,852,852],[10180,10157,62,62,62,62,62,62],[3,1,10,10,10,10,10,10],[1.6,0.5,0.5,0.5,0.5,0.5,0.5,0.5]]

>  <FP:PLIF>
2 7 21 22

>  <PLIF_ligidx>
[[6,52,13,11,9,7],52,1,1]

$$$$
