NC(=O)c1cccc(Cn2ccc3cc(-c4cc(-c5ccccc5)cc(=O)n4O)cnc32)c1
  MOE2019           3D

 53 57  0  0  0  0  0  0  0  0999 V2000
   30.9800   -5.9520   -0.5800 N   0  0  0  0  0  0  0  0  0  0  0  0
   31.7120   -5.9820    0.1470 H   0  0  0  0  0  0  0  0  0  0  0  0
   30.3880   -5.1140   -0.6670 H   0  0  0  0  0  0  0  0  0  0  0  0
   30.9040   -6.9570   -1.4880 C   0  0  0  0  0  0  0  0  0  0  0  0
   31.6730   -7.9000   -1.3440 O   0  0  0  0  0  0  0  0  0  0  0  0
   29.9090   -6.8910   -2.5530 C   0  0  0  0  0  0  0  0  0  0  0  0
   29.4420   -8.0840   -3.1020 C   0  0  0  0  0  0  0  0  0  0  0  0
   29.7910   -9.0140   -2.7320 H   0  0  0  0  0  0  0  0  0  0  0  0
   28.5360   -8.0620   -4.1440 C   0  0  0  0  0  0  0  0  0  0  0  0
   28.2240   -8.9800   -4.5540 H   0  0  0  0  0  0  0  0  0  0  0  0
   28.0770   -6.8560   -4.6640 C   0  0  0  0  0  0  0  0  0  0  0  0
   27.4140   -6.8630   -5.4890 H   0  0  0  0  0  0  0  0  0  0  0  0
   28.5070   -5.6470   -4.1170 C   0  0  0  0  0  0  0  0  0  0  0  0
   28.0570   -4.3150   -4.7180 C   0  0  0  0  0  0  0  0  0  0  0  0
   28.0720   -4.3930   -5.7950 H   0  0  0  0  0  0  0  0  0  0  0  0
   28.7230   -3.5480   -4.3590 H   0  0  0  0  0  0  0  0  0  0  0  0
   26.6870   -3.9810   -4.2860 N   0  0  0  0  0  0  0  0  0  0  0  0
   25.5780   -4.7990   -4.3930 C   0  0  0  0  0  0  0  0  0  0  0  0
   25.6420   -5.7780   -4.7860 H   0  0  0  0  0  0  0  0  0  0  0  0
   24.4960   -4.1370   -3.9120 C   0  0  0  0  0  0  0  0  0  0  0  0
   23.5190   -4.5280   -3.8350 H   0  0  0  0  0  0  0  0  0  0  0  0
   24.9020   -2.8450   -3.5250 C   0  0  0  0  0  0  0  0  0  0  0  0
   24.2390   -1.7360   -2.9920 C   0  0  0  0  0  0  0  0  0  0  0  0
   23.2050   -1.7750   -2.7670 H   0  0  0  0  0  0  0  0  0  0  0  0
   24.9820   -0.5860   -2.7580 C   0  0  0  0  0  0  0  0  0  0  0  0
   24.3660    0.5890   -2.1460 C   0  0  0  0  0  0  0  0  0  0  0  0
   23.6670    0.5540   -0.9610 C   0  0  0  0  0  0  0  0  0  0  0  0
   23.4660   -0.3770   -0.4980 H   0  0  0  0  0  0  0  0  0  0  0  0
   23.2650    1.7480   -0.2950 C   0  0  0  0  0  0  0  0  0  0  0  0
   22.6280    1.6820    1.0160 C   0  0  0  0  0  0  0  0  0  0  0  0
   21.5500    0.8190    1.2500 C   0  0  0  0  0  0  0  0  0  0  0  0
   21.1760    0.2130    0.4660 H   0  0  0  0  0  0  0  0  0  0  0  0
   20.9600    0.7560    2.5070 C   0  0  0  0  0  0  0  0  0  0  0  0
   20.1460    0.1040    2.6760 H   0  0  0  0  0  0  0  0  0  0  0  0
   21.4330    1.5510    3.5450 C   0  0  0  0  0  0  0  0  0  0  0  0
   20.9790    1.5000    4.5010 H   0  0  0  0  0  0  0  0  0  0  0  0
   22.5020    2.4130    3.3250 C   0  0  0  0  0  0  0  0  0  0  0  0
   22.8620    3.0190    4.1150 H   0  0  0  0  0  0  0  0  0  0  0  0
   23.0950    2.4780    2.0700 C   0  0  0  0  0  0  0  0  0  0  0  0
   23.9130    3.1340    1.9150 H   0  0  0  0  0  0  0  0  0  0  0  0
   23.5290    2.9590   -0.8860 C   0  0  0  0  0  0  0  0  0  0  0  0
   23.2510    3.8640   -0.4100 H   0  0  0  0  0  0  0  0  0  0  0  0
   24.1770    3.0420   -2.1510 C   0  0  0  0  0  0  0  0  0  0  0  0
   24.4410    4.1130   -2.7330 O   0  0  0  0  0  0  0  0  0  0  0  0
   24.5280    1.8360   -2.7550 N   0  0  0  0  0  0  0  0  0  0  0  0
   25.0020    1.8920   -4.0530 O   0  0  0  0  0  0  0  0  0  0  0  0
   24.8500    1.0140   -4.4580 H   0  0  0  0  0  0  0  0  0  0  0  0
   26.3750   -0.5970   -3.0700 C   0  0  0  0  0  0  0  0  0  0  0  0
   26.9500    0.2760   -2.8940 H   0  0  0  0  0  0  0  0  0  0  0  0
   27.0040   -1.6460   -3.5630 N   0  0  0  0  0  0  0  0  0  0  0  0
   26.2670   -2.7580   -3.7770 C   0  0  0  0  0  0  0  0  0  0  0  0
   29.4190   -5.6770   -3.0590 C   0  0  0  0  0  0  0  0  0  0  0  0
   29.7760   -4.7720   -2.6560 H   0  0  0  0  0  0  0  0  0  0  0  0
  1  2  1  0  0  0  0
  1  3  1  0  0  0  0
  1  4  1  0  0  0  0
  4  5  2  0  0  0  0
  4  6  1  0  0  0  0
  6  7  1  0  0  0  0
  6 52  2  0  0  0  0
  7  8  1  0  0  0  0
  7  9  2  0  0  0  0
  9 10  1  0  0  0  0
  9 11  1  0  0  0  0
 11 12  1  0  0  0  0
 11 13  2  0  0  0  0
 13 14  1  0  0  0  0
 13 52  1  0  0  0  0
 14 15  1  0  0  0  0
 14 16  1  0  0  0  0
 14 17  1  0  0  0  0
 17 18  1  0  0  0  0
 17 51  1  0  0  0  0
 18 19  1  0  0  0  0
 18 20  2  0  0  0  0
 20 21  1  0  0  0  0
 20 22  1  0  0  0  0
 22 23  1  0  0  0  0
 22 51  2  0  0  0  0
 23 24  1  0  0  0  0
 23 25  2  0  0  0  0
 25 26  1  0  0  0  0
 25 48  1  0  0  0  0
 26 27  2  0  0  0  0
 26 45  1  0  0  0  0
 27 28  1  0  0  0  0
 27 29  1  0  0  0  0
 29 30  1  0  0  0  0
 29 41  2  0  0  0  0
 30 31  1  0  0  0  0
 30 39  2  0  0  0  0
 31 32  1  0  0  0  0
 31 33  2  0  0  0  0
 33 34  1  0  0  0  0
 33 35  1  0  0  0  0
 35 36  1  0  0  0  0
 35 37  2  0  0  0  0
 37 38  1  0  0  0  0
 37 39  1  0  0  0  0
 39 40  1  0  0  0  0
 41 42  1  0  0  0  0
 41 43  1  0  0  0  0
 43 44  2  0  0  0  0
 43 45  1  0  0  0  0
 45 46  1  0  0  0  0
 46 47  1  0  0  0  0
 48 49  1  0  0  0  0
 48 50  2  0  0  0  0
 50 51  1  0  0  0  0
 52 53  1  0  0  0  0
M  END
>  <rseq>
1

>  <mseq>
4

>  <S>
-6.9850368

>  <rmsd_refine>
2.0163918

>  <E_conf>
58.453545

>  <E_place>
-66.417641

>  <E_score1>
-12.646859

>  <E_refine>
-27.198908

>  <E_score2>
-6.9850368

>  <Standard ValuenM>
40

>  <PLIF_pronum>
1

>  <PLIF_raw>
[[1,14,52,22,51,50,48,25,23],[5499,5132,5132,5209,5209,5209,5209,5209,5209],[10180,10157,10157,10162,10162,10162,10162,10162,10162],[3,1,1,10,10,10,10,10,10],[0.5,0.7,0.6,0.5,0.5,0.5,0.5,0.5,0.5]]

>  <FP:PLIF>
7 8 21

>  <PLIF_ligidx>
[[14,52],[22,51,50,48,25,23],1]

$$$$
