CS(=O)(=O)Nc1ccccc1Nc1nc(Nc2ccc(Oc3ccccc3)cc2)ncc1F
  MOE2019           3D

 53 56  0  0  0  0  0  0  0  0999 V2000
   24.3960    7.7970   -1.4390 C   0  0  0  0  0  0  0  0  0  0  0  0
   24.4730    8.8590   -1.2500 H   0  0  0  0  0  0  0  0  0  0  0  0
   24.2840    7.3520   -0.4600 H   0  0  0  0  0  0  0  0  0  0  0  0
   23.4430    7.6750   -1.9340 H   0  0  0  0  0  0  0  0  0  0  0  0
   25.7840    7.1550   -2.3610 S   0  0  0  0  0  0  0  0  0  0  0  0
   26.9560    7.3350   -1.5840 O   0  0  0  0  0  0  0  0  0  0  0  0
   25.7970    7.7540   -3.6480 O   0  0  0  0  0  0  0  0  0  0  0  0
   25.4860    5.5050   -2.5030 N   0  0  0  0  0  0  0  0  0  0  0  0
   25.4590    5.0770   -1.5670 H   0  0  0  0  0  0  0  0  0  0  0  0
   24.4450    4.9670   -3.3100 C   0  0  0  0  0  0  0  0  0  0  0  0
   23.5780    5.7740   -4.0600 C   0  0  0  0  0  0  0  0  0  0  0  0
   23.6560    6.8260   -4.0650 H   0  0  0  0  0  0  0  0  0  0  0  0
   22.5680    5.1950   -4.8170 C   0  0  0  0  0  0  0  0  0  0  0  0
   21.9070    5.8100   -5.3700 H   0  0  0  0  0  0  0  0  0  0  0  0
   22.4260    3.8150   -4.8580 C   0  0  0  0  0  0  0  0  0  0  0  0
   21.6710    3.3860   -5.4510 H   0  0  0  0  0  0  0  0  0  0  0  0
   23.2760    2.9970   -4.1270 C   0  0  0  0  0  0  0  0  0  0  0  0
   23.1530    1.9470   -4.1900 H   0  0  0  0  0  0  0  0  0  0  0  0
   24.2790    3.5650   -3.3380 C   0  0  0  0  0  0  0  0  0  0  0  0
   25.1590    2.7200   -2.5960 N   0  0  0  0  0  0  0  0  0  0  0  0
   26.1320    3.0490   -2.4950 H   0  0  0  0  0  0  0  0  0  0  0  0
   24.9370    1.3480   -2.4700 C   0  0  0  0  0  0  0  0  0  0  0  0
   25.7670    0.5310   -3.1100 N   0  0  0  0  0  0  0  0  0  0  0  0
   25.4990   -0.7880   -3.0630 C   0  0  0  0  0  0  0  0  0  0  0  0
   26.3480   -1.5840   -3.8280 N   0  0  0  0  0  0  0  0  0  0  0  0
   26.9200   -1.0660   -4.5110 H   0  0  0  0  0  0  0  0  0  0  0  0
   26.5620   -2.9840   -3.7940 C   0  0  0  0  0  0  0  0  0  0  0  0
   26.4170   -3.7290   -2.6180 C   0  0  0  0  0  0  0  0  0  0  0  0
   26.0500   -3.2820   -1.7320 H   0  0  0  0  0  0  0  0  0  0  0  0
   26.8030   -5.0640   -2.6070 C   0  0  0  0  0  0  0  0  0  0  0  0
   26.7070   -5.6350   -1.7250 H   0  0  0  0  0  0  0  0  0  0  0  0
   27.3330   -5.6390   -3.7620 C   0  0  0  0  0  0  0  0  0  0  0  0
   27.8000   -6.9370   -3.7440 O   0  0  0  0  0  0  0  0  0  0  0  0
   28.9830   -7.3110   -3.1270 C   0  0  0  0  0  0  0  0  0  0  0  0
   29.8390   -6.3740   -2.5370 C   0  0  0  0  0  0  0  0  0  0  0  0
   29.6100   -5.3400   -2.5500 H   0  0  0  0  0  0  0  0  0  0  0  0
   31.0100   -6.8110   -1.9270 C   0  0  0  0  0  0  0  0  0  0  0  0
   31.6630   -6.1120   -1.4710 H   0  0  0  0  0  0  0  0  0  0  0  0
   31.3320   -8.1670   -1.9180 C   0  0  0  0  0  0  0  0  0  0  0  0
   32.2270   -8.4940   -1.4560 H   0  0  0  0  0  0  0  0  0  0  0  0
   30.4820   -9.0920   -2.5210 C   0  0  0  0  0  0  0  0  0  0  0  0
   30.7390  -10.1200   -2.5200 H   0  0  0  0  0  0  0  0  0  0  0  0
   29.3010   -8.6680   -3.1220 C   0  0  0  0  0  0  0  0  0  0  0  0
   28.6510   -9.3700   -3.5780 H   0  0  0  0  0  0  0  0  0  0  0  0
   27.4200   -4.9210   -4.9500 C   0  0  0  0  0  0  0  0  0  0  0  0
   27.8040   -5.3820   -5.8230 H   0  0  0  0  0  0  0  0  0  0  0  0
   27.0190   -3.5930   -4.9700 C   0  0  0  0  0  0  0  0  0  0  0  0
   27.0740   -3.0460   -5.8720 H   0  0  0  0  0  0  0  0  0  0  0  0
   24.4760   -1.3470   -2.3820 N   0  0  0  0  0  0  0  0  0  0  0  0
   23.6540   -0.5390   -1.7100 C   0  0  0  0  0  0  0  0  0  0  0  0
   22.8470   -0.9570   -1.1650 H   0  0  0  0  0  0  0  0  0  0  0  0
   23.8650    0.8250   -1.7420 C   0  0  0  0  0  0  0  0  0  0  0  0
   23.0390    1.6360   -1.0620 F   0  0  0  0  0  0  0  0  0  0  0  0
  1  2  1  0  0  0  0
  1  3  1  0  0  0  0
  1  4  1  0  0  0  0
  1  5  1  0  0  0  0
  5  6  2  0  0  0  0
  5  7  2  0  0  0  0
  5  8  1  0  0  0  0
  8  9  1  0  0  0  0
  8 10  1  0  0  0  0
 10 11  1  0  0  0  0
 10 19  2  0  0  0  0
 11 12  1  0  0  0  0
 11 13  2  0  0  0  0
 13 14  1  0  0  0  0
 13 15  1  0  0  0  0
 15 16  1  0  0  0  0
 15 17  2  0  0  0  0
 17 18  1  0  0  0  0
 17 19  1  0  0  0  0
 19 20  1  0  0  0  0
 20 21  1  0  0  0  0
 20 22  1  0  0  0  0
 22 23  1  0  0  0  0
 22 52  2  0  0  0  0
 23 24  2  0  0  0  0
 24 25  1  0  0  0  0
 24 49  1  0  0  0  0
 25 26  1  0  0  0  0
 25 27  1  0  0  0  0
 27 28  1  0  0  0  0
 27 47  2  0  0  0  0
 28 29  1  0  0  0  0
 28 30  2  0  0  0  0
 30 31  1  0  0  0  0
 30 32  1  0  0  0  0
 32 33  1  0  0  0  0
 32 45  2  0  0  0  0
 33 34  1  0  0  0  0
 34 35  1  0  0  0  0
 34 43  2  0  0  0  0
 35 36  1  0  0  0  0
 35 37  2  0  0  0  0
 37 38  1  0  0  0  0
 37 39  1  0  0  0  0
 39 40  1  0  0  0  0
 39 41  2  0  0  0  0
 41 42  1  0  0  0  0
 41 43  1  0  0  0  0
 43 44  1  0  0  0  0
 45 46  1  0  0  0  0
 45 47  1  0  0  0  0
 47 48  1  0  0  0  0
 49 50  2  0  0  0  0
 50 51  1  0  0  0  0
 50 52  1  0  0  0  0
 52 53  1  0  0  0  0
M  END
>  <rseq>
1

>  <mseq>
5

>  <S>
-7.7618427

>  <rmsd_refine>
1.03863

>  <E_conf>
-110.30507

>  <E_place>
-94.652885

>  <E_score1>
-13.025332

>  <E_refine>
-39.473564

>  <E_score2>
-7.7618427

>  <Standard ValuenM>
45.799999

>  <PLIF_pronum>
1

>  <PLIF_raw>
[[34,43,41,39,37,35,10,19,17,15,13,11],[852,852,852,852,852,852,5015,5015,5015,5015,5015,5015],[62,62,62,62,62,62,10150,10150,10150,10150,10150,10150],[10,10,10,10,10,10,10,10,10,10,10,10],[0.5,0.5,0.5,0.5,0.5,0.5,0.5,0.5,0.5,0.5,0.5,0.5]]

>  <FP:PLIF>
2 23

>  <PLIF_ligidx>
[[34,43,41,39,37,35],[10,19,17,15,13,11]]

$$$$
