CS(=O)(=O)Nc1ccccc1Nc1nc(Nc2ccc(Oc3ccccc3)cc2)ncc1F
  MOE2019           3D

 53 56  0  0  0  0  0  0  0  0999 V2000
   23.7080    5.4190   -0.3000 C   0  0  0  0  0  0  0  0  0  0  0  0
   23.3860    6.1380    0.4410 H   0  0  0  0  0  0  0  0  0  0  0  0
   23.4370    4.4570    0.1100 H   0  0  0  0  0  0  0  0  0  0  0  0
   23.0500    5.5860   -1.1410 H   0  0  0  0  0  0  0  0  0  0  0  0
   25.4440    5.5640   -0.6980 S   0  0  0  0  0  0  0  0  0  0  0  0
   26.1920    5.2370    0.4640 O   0  0  0  0  0  0  0  0  0  0  0  0
   25.6740    6.8540   -1.2460 O   0  0  0  0  0  0  0  0  0  0  0  0
   25.7250    4.3880   -1.8670 N   0  0  0  0  0  0  0  0  0  0  0  0
   25.7200    3.4660   -1.4070 H   0  0  0  0  0  0  0  0  0  0  0  0
   24.8930    4.3000   -3.0130 C   0  0  0  0  0  0  0  0  0  0  0  0
   24.3000    5.4140   -3.6180 C   0  0  0  0  0  0  0  0  0  0  0  0
   24.5130    6.3960   -3.2910 H   0  0  0  0  0  0  0  0  0  0  0  0
   23.4050    5.2380   -4.6700 C   0  0  0  0  0  0  0  0  0  0  0  0
   22.9440    6.0820   -5.1150 H   0  0  0  0  0  0  0  0  0  0  0  0
   23.1160    3.9610   -5.1460 C   0  0  0  0  0  0  0  0  0  0  0  0
   22.4270    3.8350   -5.9410 H   0  0  0  0  0  0  0  0  0  0  0  0
   23.7380    2.8500   -4.5900 C   0  0  0  0  0  0  0  0  0  0  0  0
   23.5320    1.8840   -4.9740 H   0  0  0  0  0  0  0  0  0  0  0  0
   24.6320    3.0170   -3.5320 C   0  0  0  0  0  0  0  0  0  0  0  0
   25.2620    1.8640   -2.9870 N   0  0  0  0  0  0  0  0  0  0  0  0
   26.1930    1.6250   -3.3630 H   0  0  0  0  0  0  0  0  0  0  0  0
   24.4690    0.7960   -2.5890 C   0  0  0  0  0  0  0  0  0  0  0  0
   24.7780   -0.4150   -3.0520 N   0  0  0  0  0  0  0  0  0  0  0  0
   23.9110   -1.4060   -2.7610 C   0  0  0  0  0  0  0  0  0  0  0  0
   24.1310   -2.7040   -3.2020 N   0  0  0  0  0  0  0  0  0  0  0  0
   23.3810   -3.3580   -2.9300 H   0  0  0  0  0  0  0  0  0  0  0  0
   25.4010   -3.2960   -3.3450 C   0  0  0  0  0  0  0  0  0  0  0  0
   26.2810   -2.9070   -4.3580 C   0  0  0  0  0  0  0  0  0  0  0  0
   26.0290   -2.1140   -5.0080 H   0  0  0  0  0  0  0  0  0  0  0  0
   27.4870   -3.5800   -4.5070 C   0  0  0  0  0  0  0  0  0  0  0  0
   28.1550   -3.3200   -5.2840 H   0  0  0  0  0  0  0  0  0  0  0  0
   27.8200   -4.6050   -3.6260 C   0  0  0  0  0  0  0  0  0  0  0  0
   29.0660   -5.1860   -3.7530 O   0  0  0  0  0  0  0  0  0  0  0  0
   29.4300   -6.4000   -3.2200 C   0  0  0  0  0  0  0  0  0  0  0  0
   28.7630   -7.5610   -3.6090 C   0  0  0  0  0  0  0  0  0  0  0  0
   27.9410   -7.5090   -4.2760 H   0  0  0  0  0  0  0  0  0  0  0  0
   29.2060   -8.7880   -3.1280 C   0  0  0  0  0  0  0  0  0  0  0  0
   28.7180   -9.6790   -3.4280 H   0  0  0  0  0  0  0  0  0  0  0  0
   30.3020   -8.8480   -2.2670 C   0  0  0  0  0  0  0  0  0  0  0  0
   30.6500   -9.7840   -1.9140 H   0  0  0  0  0  0  0  0  0  0  0  0
   30.9470   -7.6790   -1.8680 C   0  0  0  0  0  0  0  0  0  0  0  0
   31.7760   -7.7300   -1.2090 H   0  0  0  0  0  0  0  0  0  0  0  0
   30.5100   -6.4470   -2.3410 C   0  0  0  0  0  0  0  0  0  0  0  0
   31.0010   -5.5550   -2.0460 H   0  0  0  0  0  0  0  0  0  0  0  0
   26.9420   -4.9960   -2.6160 C   0  0  0  0  0  0  0  0  0  0  0  0
   27.1940   -5.7810   -1.9580 H   0  0  0  0  0  0  0  0  0  0  0  0
   25.7320   -4.3340   -2.4710 C   0  0  0  0  0  0  0  0  0  0  0  0
   25.0680   -4.6170   -1.7010 H   0  0  0  0  0  0  0  0  0  0  0  0
   22.7820   -1.2620   -2.0430 N   0  0  0  0  0  0  0  0  0  0  0  0
   22.5000   -0.0730   -1.5250 C   0  0  0  0  0  0  0  0  0  0  0  0
   21.6290    0.0440   -0.9310 H   0  0  0  0  0  0  0  0  0  0  0  0
   23.3490    0.9810   -1.7710 C   0  0  0  0  0  0  0  0  0  0  0  0
   23.0930    2.1710   -1.2040 F   0  0  0  0  0  0  0  0  0  0  0  0
  1  2  1  0  0  0  0
  1  3  1  0  0  0  0
  1  4  1  0  0  0  0
  1  5  1  0  0  0  0
  5  6  2  0  0  0  0
  5  7  2  0  0  0  0
  5  8  1  0  0  0  0
  8  9  1  0  0  0  0
  8 10  1  0  0  0  0
 10 11  1  0  0  0  0
 10 19  2  0  0  0  0
 11 12  1  0  0  0  0
 11 13  2  0  0  0  0
 13 14  1  0  0  0  0
 13 15  1  0  0  0  0
 15 16  1  0  0  0  0
 15 17  2  0  0  0  0
 17 18  1  0  0  0  0
 17 19  1  0  0  0  0
 19 20  1  0  0  0  0
 20 21  1  0  0  0  0
 20 22  1  0  0  0  0
 22 23  1  0  0  0  0
 22 52  2  0  0  0  0
 23 24  2  0  0  0  0
 24 25  1  0  0  0  0
 24 49  1  0  0  0  0
 25 26  1  0  0  0  0
 25 27  1  0  0  0  0
 27 28  1  0  0  0  0
 27 47  2  0  0  0  0
 28 29  1  0  0  0  0
 28 30  2  0  0  0  0
 30 31  1  0  0  0  0
 30 32  1  0  0  0  0
 32 33  1  0  0  0  0
 32 45  2  0  0  0  0
 33 34  1  0  0  0  0
 34 35  1  0  0  0  0
 34 43  2  0  0  0  0
 35 36  1  0  0  0  0
 35 37  2  0  0  0  0
 37 38  1  0  0  0  0
 37 39  1  0  0  0  0
 39 40  1  0  0  0  0
 39 41  2  0  0  0  0
 41 42  1  0  0  0  0
 41 43  1  0  0  0  0
 43 44  1  0  0  0  0
 45 46  1  0  0  0  0
 45 47  1  0  0  0  0
 47 48  1  0  0  0  0
 49 50  2  0  0  0  0
 50 51  1  0  0  0  0
 50 52  1  0  0  0  0
 52 53  1  0  0  0  0
M  END
>  <rseq>
1

>  <mseq>
5

>  <S>
-7.5826793

>  <rmsd_refine>
1.2835925

>  <E_conf>
-112.09866

>  <E_place>
-101.60763

>  <E_score1>
-12.160992

>  <E_refine>
-35.764591

>  <E_score2>
-7.5826793

>  <Standard ValuenM>
45.799999

>  <PLIF_pronum>
1

>  <PLIF_raw>
[[6,34,43,41,39,37,35,10,19,17,15,13,11,34,43,41,39,37,35,22,52,50,49,24,23,10,19,17,15,13,11],[6520,852,852,852,852,852,852,5015,5015,5015,5015,5015,5015,5483,5483,5483,5483,5483,5483,6565,6565,6565,6565,6565,6565,6925,6925,6925,6925,6925,6925],[221046,62,62,62,62,62,62,10150,10150,10150,10150,10150,10150,10179,10179,10179,10179,10179,10179,221061,221061,221061,221061,221061,221061,221182,221182,221182,221182,221182,221182],[6,10,10,10,10,10,10,10,10,10,10,10,10,10,10,10,10,10,10,10,10,10,10,10,10,10,10,10,10,10,10],[1,1.1,1.1,1.1,1.1,1.1,1.1,0.5,0.5,0.5,0.5,0.5,0.5,0.6,0.6,0.6,0.6,0.6,0.6,0.5,0.5,0.5,0.5,0.5,0.5,1.2,1.2,1.2,1.2,1.2,1.2]]

>  <FP:PLIF>
2 24 23 25 5 6 14 26

>  <PLIF_ligidx>
[[34,43,41,39,37,35],[34,43,41,39,37,35],[10,19,17,15,13,11],[34,43,41,39,37,35],6,[22,52,50,49,24,23],[10,19,17,15,13,11],[10,19,17,15,13,11]]

$$$$
