CS(=O)(=O)Nc1ccccc1Nc1nc(Nc2ccc(Oc3ccccc3)cc2)ncc1F
  MOE2019           3D

 53 56  0  0  0  0  0  0  0  0999 V2000
   22.1260   -0.1910   -6.3490 C   0  0  0  0  0  0  0  0  0  0  0  0
   21.0830   -0.2370   -6.5640 H   0  0  0  0  0  0  0  0  0  0  0  0
   22.5300   -1.1640   -6.5800 H   0  0  0  0  0  0  0  0  0  0  0  0
   22.4810    0.4740   -7.1190 H   0  0  0  0  0  0  0  0  0  0  0  0
   22.5380    0.4110   -4.7330 S   0  0  0  0  0  0  0  0  0  0  0  0
   23.1180   -0.6700   -4.0330 O   0  0  0  0  0  0  0  0  0  0  0  0
   21.3900    0.9850   -4.1420 O   0  0  0  0  0  0  0  0  0  0  0  0
   23.6880    1.6060   -4.9820 N   0  0  0  0  0  0  0  0  0  0  0  0
   23.7550    1.6970   -6.0070 H   0  0  0  0  0  0  0  0  0  0  0  0
   23.4660    2.8760   -4.4170 C   0  0  0  0  0  0  0  0  0  0  0  0
   22.6030    3.7460   -5.0820 C   0  0  0  0  0  0  0  0  0  0  0  0
   22.1320    3.4420   -5.9780 H   0  0  0  0  0  0  0  0  0  0  0  0
   22.3710    5.0220   -4.5780 C   0  0  0  0  0  0  0  0  0  0  0  0
   21.7090    5.6770   -5.0820 H   0  0  0  0  0  0  0  0  0  0  0  0
   23.0140    5.4440   -3.4180 C   0  0  0  0  0  0  0  0  0  0  0  0
   22.8350    6.4180   -3.0410 H   0  0  0  0  0  0  0  0  0  0  0  0
   23.9020    4.5960   -2.7600 C   0  0  0  0  0  0  0  0  0  0  0  0
   24.4000    4.9330   -1.8880 H   0  0  0  0  0  0  0  0  0  0  0  0
   24.1420    3.3150   -3.2560 C   0  0  0  0  0  0  0  0  0  0  0  0
   25.1240    2.5480   -2.5710 N   0  0  0  0  0  0  0  0  0  0  0  0
   25.6420    3.0550   -1.8390 H   0  0  0  0  0  0  0  0  0  0  0  0
   25.0170    1.1790   -2.3670 C   0  0  0  0  0  0  0  0  0  0  0  0
   25.8550    0.3800   -3.0280 N   0  0  0  0  0  0  0  0  0  0  0  0
   25.7400   -0.9460   -2.8240 C   0  0  0  0  0  0  0  0  0  0  0  0
   26.5390   -1.7330   -3.6560 N   0  0  0  0  0  0  0  0  0  0  0  0
   27.0280   -1.1990   -4.3880 H   0  0  0  0  0  0  0  0  0  0  0  0
   26.7360   -3.1420   -3.7010 C   0  0  0  0  0  0  0  0  0  0  0  0
   26.5460   -3.9700   -2.5870 C   0  0  0  0  0  0  0  0  0  0  0  0
   26.1600   -3.5940   -1.6780 H   0  0  0  0  0  0  0  0  0  0  0  0
   26.9180   -5.3040   -2.6590 C   0  0  0  0  0  0  0  0  0  0  0  0
   26.7850   -5.9350   -1.8260 H   0  0  0  0  0  0  0  0  0  0  0  0
   27.4850   -5.8050   -3.8280 C   0  0  0  0  0  0  0  0  0  0  0  0
   27.9630   -7.0980   -3.8600 O   0  0  0  0  0  0  0  0  0  0  0  0
   29.1110   -7.4750   -3.1770 C   0  0  0  0  0  0  0  0  0  0  0  0
   29.4260   -8.8320   -3.1530 C   0  0  0  0  0  0  0  0  0  0  0  0
   28.7970   -9.5340   -3.6370 H   0  0  0  0  0  0  0  0  0  0  0  0
   30.5790   -9.2560   -2.4990 C   0  0  0  0  0  0  0  0  0  0  0  0
   30.8340  -10.2840   -2.4850 H   0  0  0  0  0  0  0  0  0  0  0  0
   31.4020   -8.3310   -1.8610 C   0  0  0  0  0  0  0  0  0  0  0  0
   32.2760   -8.6570   -1.3590 H   0  0  0  0  0  0  0  0  0  0  0  0
   31.0800   -6.9760   -1.8820 C   0  0  0  0  0  0  0  0  0  0  0  0
   31.7110   -6.2760   -1.3970 H   0  0  0  0  0  0  0  0  0  0  0  0
   29.9380   -6.5390   -2.5460 C   0  0  0  0  0  0  0  0  0  0  0  0
   29.7130   -5.5040   -2.5690 H   0  0  0  0  0  0  0  0  0  0  0  0
   27.6070   -5.0120   -4.9630 C   0  0  0  0  0  0  0  0  0  0  0  0
   28.0140   -5.4170   -5.8530 H   0  0  0  0  0  0  0  0  0  0  0  0
   27.2150   -3.6820   -4.9030 C   0  0  0  0  0  0  0  0  0  0  0  0
   27.2940   -3.0840   -5.7680 H   0  0  0  0  0  0  0  0  0  0  0  0
   24.8910   -1.5150   -1.9390 N   0  0  0  0  0  0  0  0  0  0  0  0
   24.0480   -0.7230   -1.2700 C   0  0  0  0  0  0  0  0  0  0  0  0
   23.3590   -1.1490   -0.5890 H   0  0  0  0  0  0  0  0  0  0  0  0
   24.0820    0.6400   -1.4820 C   0  0  0  0  0  0  0  0  0  0  0  0
   23.2300    1.4360   -0.8140 F   0  0  0  0  0  0  0  0  0  0  0  0
  1  2  1  0  0  0  0
  1  3  1  0  0  0  0
  1  4  1  0  0  0  0
  1  5  1  0  0  0  0
  5  6  2  0  0  0  0
  5  7  2  0  0  0  0
  5  8  1  0  0  0  0
  8  9  1  0  0  0  0
  8 10  1  0  0  0  0
 10 11  1  0  0  0  0
 10 19  2  0  0  0  0
 11 12  1  0  0  0  0
 11 13  2  0  0  0  0
 13 14  1  0  0  0  0
 13 15  1  0  0  0  0
 15 16  1  0  0  0  0
 15 17  2  0  0  0  0
 17 18  1  0  0  0  0
 17 19  1  0  0  0  0
 19 20  1  0  0  0  0
 20 21  1  0  0  0  0
 20 22  1  0  0  0  0
 22 23  1  0  0  0  0
 22 52  2  0  0  0  0
 23 24  2  0  0  0  0
 24 25  1  0  0  0  0
 24 49  1  0  0  0  0
 25 26  1  0  0  0  0
 25 27  1  0  0  0  0
 27 28  1  0  0  0  0
 27 47  2  0  0  0  0
 28 29  1  0  0  0  0
 28 30  2  0  0  0  0
 30 31  1  0  0  0  0
 30 32  1  0  0  0  0
 32 33  1  0  0  0  0
 32 45  2  0  0  0  0
 33 34  1  0  0  0  0
 34 35  1  0  0  0  0
 34 43  2  0  0  0  0
 35 36  1  0  0  0  0
 35 37  2  0  0  0  0
 37 38  1  0  0  0  0
 37 39  1  0  0  0  0
 39 40  1  0  0  0  0
 39 41  2  0  0  0  0
 41 42  1  0  0  0  0
 41 43  1  0  0  0  0
 43 44  1  0  0  0  0
 45 46  1  0  0  0  0
 45 47  1  0  0  0  0
 47 48  1  0  0  0  0
 49 50  2  0  0  0  0
 50 51  1  0  0  0  0
 50 52  1  0  0  0  0
 52 53  1  0  0  0  0
M  END
>  <rseq>
1

>  <mseq>
5

>  <S>
-7.4479151

>  <rmsd_refine>
2.8003969

>  <E_conf>
-102.77136

>  <E_place>
-65.218628

>  <E_score1>
-13.378012

>  <E_refine>
-28.577435

>  <E_score2>
-7.4479151

>  <Standard ValuenM>
45.799999

>  <PLIF_pronum>
1

>  <PLIF_raw>
[[6,8,8,8,8,8,8,34,43,41,39,37,35],[6580,5204,5207,5211,5213,5209,5205,852,852,852,852,852,852],[221066,10162,10162,10162,10162,10162,10162,62,62,62,62,62,62],[6,10,10,10,10,10,10,10,10,10,10,10,10],[0.9,0.5,0.5,0.5,0.5,0.5,0.5,0.6,0.6,0.6,0.6,0.6,0.6]]

>  <FP:PLIF>
2 8 11

>  <PLIF_ligidx>
[[34,43,41,39,37,35],[8,8,8,8,8,8],6]

$$$$
