CS(=O)(=O)Nc1ccccc1Nc1nc(Nc2ccc(C(=O)OCc3ccccc3)cc2)ncc1F
  MOE2019           3D

 58 61  0  0  0  0  0  0  0  0999 V2000
   21.8650    7.3690   -4.5940 C   0  0  0  0  0  0  0  0  0  0  0  0
   21.3630    7.1420   -5.5240 H   0  0  0  0  0  0  0  0  0  0  0  0
   22.8990    7.5330   -4.8670 H   0  0  0  0  0  0  0  0  0  0  0  0
   21.4730    8.3330   -4.3010 H   0  0  0  0  0  0  0  0  0  0  0  0
   21.6460    6.1020   -3.3580 S   0  0  0  0  0  0  0  0  0  0  0  0
   20.2620    5.9830   -3.0670 O   0  0  0  0  0  0  0  0  0  0  0  0
   22.2910    4.9150   -3.8070 O   0  0  0  0  0  0  0  0  0  0  0  0
   22.4200    6.7020   -1.9950 N   0  0  0  0  0  0  0  0  0  0  0  0
   22.2890    7.7230   -2.0340 H   0  0  0  0  0  0  0  0  0  0  0  0
   23.7990    6.4210   -1.9480 C   0  0  0  0  0  0  0  0  0  0  0  0
   24.6870    7.4200   -2.3460 C   0  0  0  0  0  0  0  0  0  0  0  0
   24.3270    8.3670   -2.6570 H   0  0  0  0  0  0  0  0  0  0  0  0
   26.0550    7.1660   -2.3450 C   0  0  0  0  0  0  0  0  0  0  0  0
   26.7340    7.9190   -2.6550 H   0  0  0  0  0  0  0  0  0  0  0  0
   26.5340    5.9210   -1.9490 C   0  0  0  0  0  0  0  0  0  0  0  0
   27.5730    5.7290   -1.9670 H   0  0  0  0  0  0  0  0  0  0  0  0
   25.6560    4.9240   -1.5380 C   0  0  0  0  0  0  0  0  0  0  0  0
   26.0340    3.9880   -1.2350 H   0  0  0  0  0  0  0  0  0  0  0  0
   24.2840    5.1720   -1.5150 C   0  0  0  0  0  0  0  0  0  0  0  0
   23.3770    4.2020   -0.9920 N   0  0  0  0  0  0  0  0  0  0  0  0
   22.5330    4.5730   -0.5280 H   0  0  0  0  0  0  0  0  0  0  0  0
   23.4610    2.8070   -1.1120 C   0  0  0  0  0  0  0  0  0  0  0  0
   24.2990    2.2550   -1.9890 N   0  0  0  0  0  0  0  0  0  0  0  0
   24.3070    0.9150   -2.0810 C   0  0  0  0  0  0  0  0  0  0  0  0
   25.2420    0.4000   -2.9720 N   0  0  0  0  0  0  0  0  0  0  0  0
   25.9450    1.0780   -3.3050 H   0  0  0  0  0  0  0  0  0  0  0  0
   25.4110   -0.9380   -3.3720 C   0  0  0  0  0  0  0  0  0  0  0  0
   24.3290   -1.7650   -3.6990 C   0  0  0  0  0  0  0  0  0  0  0  0
   23.3400   -1.4040   -3.5970 H   0  0  0  0  0  0  0  0  0  0  0  0
   24.5680   -3.0490   -4.1830 C   0  0  0  0  0  0  0  0  0  0  0  0
   23.7550   -3.6770   -4.4380 H   0  0  0  0  0  0  0  0  0  0  0  0
   25.8810   -3.5230   -4.3350 C   0  0  0  0  0  0  0  0  0  0  0  0
   26.1650   -4.8580   -4.8400 C   0  0  0  0  0  0  0  0  0  0  0  0
   25.5310   -5.4380   -5.7210 O   0  0  0  0  0  0  0  0  0  0  0  0
   27.2290   -5.4710   -4.2790 O   0  0  0  0  0  0  0  0  0  0  0  0
   27.8220   -6.7220   -4.6780 C   0  0  0  0  0  0  0  0  0  0  0  0
   28.2980   -6.6000   -5.6420 H   0  0  0  0  0  0  0  0  0  0  0  0
   27.0660   -7.4910   -4.6660 H   0  0  0  0  0  0  0  0  0  0  0  0
   28.8860   -7.0400   -3.6350 C   0  0  0  0  0  0  0  0  0  0  0  0
   29.1910   -8.3720   -3.3540 C   0  0  0  0  0  0  0  0  0  0  0  0
   28.6560   -9.1510   -3.8340 H   0  0  0  0  0  0  0  0  0  0  0  0
   30.2080   -8.6910   -2.4580 C   0  0  0  0  0  0  0  0  0  0  0  0
   30.4480   -9.7040   -2.2650 H   0  0  0  0  0  0  0  0  0  0  0  0
   30.9190   -7.6810   -1.8200 C   0  0  0  0  0  0  0  0  0  0  0  0
   31.6950   -7.9240   -1.1410 H   0  0  0  0  0  0  0  0  0  0  0  0
   30.6110   -6.3510   -2.0780 C   0  0  0  0  0  0  0  0  0  0  0  0
   31.1520   -5.5800   -1.5910 H   0  0  0  0  0  0  0  0  0  0  0  0
   29.6040   -6.0310   -2.9840 C   0  0  0  0  0  0  0  0  0  0  0  0
   29.4000   -5.0110   -3.1840 H   0  0  0  0  0  0  0  0  0  0  0  0
   26.9470   -2.6820   -3.9810 C   0  0  0  0  0  0  0  0  0  0  0  0
   27.9430   -3.0240   -4.0930 H   0  0  0  0  0  0  0  0  0  0  0  0
   26.7190   -1.4010   -3.5050 C   0  0  0  0  0  0  0  0  0  0  0  0
   27.5330   -0.7720   -3.2540 H   0  0  0  0  0  0  0  0  0  0  0  0
   23.5340    0.0760   -1.3620 N   0  0  0  0  0  0  0  0  0  0  0  0
   22.6920    0.6130   -0.4800 C   0  0  0  0  0  0  0  0  0  0  0  0
   22.0720   -0.0220    0.1000 H   0  0  0  0  0  0  0  0  0  0  0  0
   22.6420    1.9850   -0.3330 C   0  0  0  0  0  0  0  0  0  0  0  0
   21.7940    2.5240    0.5600 F   0  0  0  0  0  0  0  0  0  0  0  0
  1  2  1  0  0  0  0
  1  3  1  0  0  0  0
  1  4  1  0  0  0  0
  1  5  1  0  0  0  0
  5  6  2  0  0  0  0
  5  7  2  0  0  0  0
  5  8  1  0  0  0  0
  8  9  1  0  0  0  0
  8 10  1  0  0  0  0
 10 11  1  0  0  0  0
 10 19  2  0  0  0  0
 11 12  1  0  0  0  0
 11 13  2  0  0  0  0
 13 14  1  0  0  0  0
 13 15  1  0  0  0  0
 15 16  1  0  0  0  0
 15 17  2  0  0  0  0
 17 18  1  0  0  0  0
 17 19  1  0  0  0  0
 19 20  1  0  0  0  0
 20 21  1  0  0  0  0
 20 22  1  0  0  0  0
 22 23  1  0  0  0  0
 22 57  2  0  0  0  0
 23 24  2  0  0  0  0
 24 25  1  0  0  0  0
 24 54  1  0  0  0  0
 25 26  1  0  0  0  0
 25 27  1  0  0  0  0
 27 28  1  0  0  0  0
 27 52  2  0  0  0  0
 28 29  1  0  0  0  0
 28 30  2  0  0  0  0
 30 31  1  0  0  0  0
 30 32  1  0  0  0  0
 32 33  1  0  0  0  0
 32 50  2  0  0  0  0
 33 34  2  0  0  0  0
 33 35  1  0  0  0  0
 35 36  1  0  0  0  0
 36 37  1  0  0  0  0
 36 38  1  0  0  0  0
 36 39  1  0  0  0  0
 39 40  1  0  0  0  0
 39 48  2  0  0  0  0
 40 41  1  0  0  0  0
 40 42  2  0  0  0  0
 42 43  1  0  0  0  0
 42 44  1  0  0  0  0
 44 45  1  0  0  0  0
 44 46  2  0  0  0  0
 46 47  1  0  0  0  0
 46 48  1  0  0  0  0
 48 49  1  0  0  0  0
 50 51  1  0  0  0  0
 50 52  1  0  0  0  0
 52 53  1  0  0  0  0
 54 55  2  0  0  0  0
 55 56  1  0  0  0  0
 55 57  1  0  0  0  0
 57 58  1  0  0  0  0
M  END
>  <rseq>
1

>  <mseq>
6

>  <S>
-8.5666485

>  <rmsd_refine>
2.2089281

>  <E_conf>
-112.37737

>  <E_place>
-88.181931

>  <E_score1>
-12.024673

>  <E_refine>
-54.176792

>  <E_score2>
-8.5666485

>  <Standard ValuenM>
51.299999

>  <PLIF_pronum>
1

>  <PLIF_raw>
[[34,7,39,48,46,44,42,40,39,48,46,44,42,40],[5555,6925,852,852,852,852,852,852,5483,5483,5483,5483,5483,5483],[20201,221182,62,62,62,62,62,62,10179,10179,10179,10179,10179,10179],[9,6,10,10,10,10,10,10,10,10,10,10,10,10],[2.568184192,0.5,1,1,1,1,1,1,0.7,0.7,0.7,0.7,0.7,0.7]]

>  <FP:PLIF>
2 24 25 3 12

>  <PLIF_ligidx>
[[39,48,46,44,42,40],[39,48,46,44,42,40],[39,48,46,44,42,40],34,7]

$$$$
