CS(=O)(=O)Nc1ccccc1Nc1nc(Nc2ccc(C(=O)OCc3ccccc3)cc2)ncc1F
  MOE2019           3D

 58 61  0  0  0  0  0  0  0  0999 V2000
   21.1370    1.3380    2.2470 C   0  0  0  0  0  0  0  0  0  0  0  0
   20.0560    1.3680    2.2480 H   0  0  0  0  0  0  0  0  0  0  0  0
   21.4280    1.9410    3.0950 H   0  0  0  0  0  0  0  0  0  0  0  0
   21.3830    0.3160    2.5010 H   0  0  0  0  0  0  0  0  0  0  0  0
   21.8480    1.8830    0.7040 S   0  0  0  0  0  0  0  0  0  0  0  0
   21.4830    3.2420    0.4910 O   0  0  0  0  0  0  0  0  0  0  0  0
   21.4700    0.9670   -0.3150 O   0  0  0  0  0  0  0  0  0  0  0  0
   23.5020    1.7640    0.9460 N   0  0  0  0  0  0  0  0  0  0  0  0
   23.6430    1.1980    1.7940 H   0  0  0  0  0  0  0  0  0  0  0  0
   24.2980    2.9310    0.9990 C   0  0  0  0  0  0  0  0  0  0  0  0
   24.9850    3.1290    2.1990 C   0  0  0  0  0  0  0  0  0  0  0  0
   24.9050    2.4180    2.9800 H   0  0  0  0  0  0  0  0  0  0  0  0
   25.7670    4.2660    2.3820 C   0  0  0  0  0  0  0  0  0  0  0  0
   26.2760    4.4160    3.2980 H   0  0  0  0  0  0  0  0  0  0  0  0
   25.8760    5.2100    1.3670 C   0  0  0  0  0  0  0  0  0  0  0  0
   26.4610    6.0810    1.5170 H   0  0  0  0  0  0  0  0  0  0  0  0
   25.2200    5.0150    0.1550 C   0  0  0  0  0  0  0  0  0  0  0  0
   25.3170    5.7380   -0.6140 H   0  0  0  0  0  0  0  0  0  0  0  0
   24.4430    3.8730   -0.0530 C   0  0  0  0  0  0  0  0  0  0  0  0
   23.8430    3.7920   -1.3470 N   0  0  0  0  0  0  0  0  0  0  0  0
   23.6010    4.7020   -1.7710 H   0  0  0  0  0  0  0  0  0  0  0  0
   23.8440    2.7220   -2.2510 C   0  0  0  0  0  0  0  0  0  0  0  0
   24.1740    1.4970   -1.8570 N   0  0  0  0  0  0  0  0  0  0  0  0
   24.0800    0.5040   -2.7520 C   0  0  0  0  0  0  0  0  0  0  0  0
   24.3760   -0.7540   -2.2320 N   0  0  0  0  0  0  0  0  0  0  0  0
   24.5050   -0.7610   -1.2100 H   0  0  0  0  0  0  0  0  0  0  0  0
   24.8030   -1.9090   -2.9120 C   0  0  0  0  0  0  0  0  0  0  0  0
   25.7680   -2.6830   -2.2680 C   0  0  0  0  0  0  0  0  0  0  0  0
   26.1430   -2.3880   -1.3230 H   0  0  0  0  0  0  0  0  0  0  0  0
   26.2440   -3.8330   -2.8740 C   0  0  0  0  0  0  0  0  0  0  0  0
   26.9750   -4.4100   -2.3700 H   0  0  0  0  0  0  0  0  0  0  0  0
   25.7760   -4.2320   -4.1390 C   0  0  0  0  0  0  0  0  0  0  0  0
   26.3430   -5.3990   -4.7990 C   0  0  0  0  0  0  0  0  0  0  0  0
   25.9670   -5.8590   -5.8760 O   0  0  0  0  0  0  0  0  0  0  0  0
   27.3710   -5.9880   -4.1550 O   0  0  0  0  0  0  0  0  0  0  0  0
   28.2220   -7.0320   -4.6430 C   0  0  0  0  0  0  0  0  0  0  0  0
   28.7440   -6.6890   -5.5260 H   0  0  0  0  0  0  0  0  0  0  0  0
   27.6340   -7.9180   -4.8060 H   0  0  0  0  0  0  0  0  0  0  0  0
   29.2230   -7.2900   -3.5300 C   0  0  0  0  0  0  0  0  0  0  0  0
   29.8470   -6.2320   -2.8640 C   0  0  0  0  0  0  0  0  0  0  0  0
   29.5960   -5.2290   -3.1000 H   0  0  0  0  0  0  0  0  0  0  0  0
   30.8220   -6.4810   -1.9030 C   0  0  0  0  0  0  0  0  0  0  0  0
   31.2990   -5.6740   -1.4090 H   0  0  0  0  0  0  0  0  0  0  0  0
   31.1820   -7.7890   -1.6020 C   0  0  0  0  0  0  0  0  0  0  0  0
   31.9350   -7.9800   -0.8810 H   0  0  0  0  0  0  0  0  0  0  0  0
   30.5530   -8.8480   -2.2450 C   0  0  0  0  0  0  0  0  0  0  0  0
   30.8270   -9.8440   -2.0110 H   0  0  0  0  0  0  0  0  0  0  0  0
   29.5700   -8.6000   -3.1980 C   0  0  0  0  0  0  0  0  0  0  0  0
   29.0970   -9.4140   -3.6830 H   0  0  0  0  0  0  0  0  0  0  0  0
   24.7770   -3.4650   -4.7550 C   0  0  0  0  0  0  0  0  0  0  0  0
   24.3900   -3.7620   -5.6950 H   0  0  0  0  0  0  0  0  0  0  0  0
   24.2970   -2.3080   -4.1550 C   0  0  0  0  0  0  0  0  0  0  0  0
   23.5520   -1.7390   -4.6430 H   0  0  0  0  0  0  0  0  0  0  0  0
   23.7310    0.6590   -4.0440 N   0  0  0  0  0  0  0  0  0  0  0  0
   23.4310    1.8840   -4.4710 C   0  0  0  0  0  0  0  0  0  0  0  0
   23.1580    2.0290   -5.4850 H   0  0  0  0  0  0  0  0  0  0  0  0
   23.4770    2.9390   -3.5820 C   0  0  0  0  0  0  0  0  0  0  0  0
   23.1590    4.1740   -4.0080 F   0  0  0  0  0  0  0  0  0  0  0  0
  1  2  1  0  0  0  0
  1  3  1  0  0  0  0
  1  4  1  0  0  0  0
  1  5  1  0  0  0  0
  5  6  2  0  0  0  0
  5  7  2  0  0  0  0
  5  8  1  0  0  0  0
  8  9  1  0  0  0  0
  8 10  1  0  0  0  0
 10 11  1  0  0  0  0
 10 19  2  0  0  0  0
 11 12  1  0  0  0  0
 11 13  2  0  0  0  0
 13 14  1  0  0  0  0
 13 15  1  0  0  0  0
 15 16  1  0  0  0  0
 15 17  2  0  0  0  0
 17 18  1  0  0  0  0
 17 19  1  0  0  0  0
 19 20  1  0  0  0  0
 20 21  1  0  0  0  0
 20 22  1  0  0  0  0
 22 23  1  0  0  0  0
 22 57  2  0  0  0  0
 23 24  2  0  0  0  0
 24 25  1  0  0  0  0
 24 54  1  0  0  0  0
 25 26  1  0  0  0  0
 25 27  1  0  0  0  0
 27 28  1  0  0  0  0
 27 52  2  0  0  0  0
 28 29  1  0  0  0  0
 28 30  2  0  0  0  0
 30 31  1  0  0  0  0
 30 32  1  0  0  0  0
 32 33  1  0  0  0  0
 32 50  2  0  0  0  0
 33 34  2  0  0  0  0
 33 35  1  0  0  0  0
 35 36  1  0  0  0  0
 36 37  1  0  0  0  0
 36 38  1  0  0  0  0
 36 39  1  0  0  0  0
 39 40  1  0  0  0  0
 39 48  2  0  0  0  0
 40 41  1  0  0  0  0
 40 42  2  0  0  0  0
 42 43  1  0  0  0  0
 42 44  1  0  0  0  0
 44 45  1  0  0  0  0
 44 46  2  0  0  0  0
 46 47  1  0  0  0  0
 46 48  1  0  0  0  0
 48 49  1  0  0  0  0
 50 51  1  0  0  0  0
 50 52  1  0  0  0  0
 52 53  1  0  0  0  0
 54 55  2  0  0  0  0
 55 56  1  0  0  0  0
 55 57  1  0  0  0  0
 57 58  1  0  0  0  0
M  END
>  <rseq>
1

>  <mseq>
6

>  <S>
-8.4756336

>  <rmsd_refine>
2.672184

>  <E_conf>
-107.85481

>  <E_place>
-111.14025

>  <E_score1>
-16.425585

>  <E_refine>
-54.982327

>  <E_score2>
-8.4756336

>  <Standard ValuenM>
51.299999

>  <PLIF_pronum>
1

>  <PLIF_raw>
[[34,8,25,6,39,48,46,44,42,40,27,52,50,32,30,28,10,19,17,15,13,11,39,48,46,44,42,40],[5555,899,899,6925,852,852,852,852,852,852,944,944,944,944,944,944,5098,5098,5098,5098,5098,5098,5483,5483,5483,5483,5483,5483],[20201,65,65,221182,62,62,62,62,62,62,67,67,67,67,67,67,10156,10156,10156,10156,10156,10156,10179,10179,10179,10179,10179,10179],[9,1,1,6,10,10,10,10,10,10,10,10,10,10,10,10,10,10,10,10,10,10,10,10,10,10,10,10],[3.264242753,2.1,1.6,0.9,1,1,1,1,1,1,0.6,0.6,0.6,0.6,0.6,0.6,0.7,0.7,0.7,0.7,0.7,0.7,0.9,0.9,0.9,0.9,0.9,0.9]]

>  <FP:PLIF>
2 24 20 28 29 30 25 3 12

>  <PLIF_ligidx>
[[39,48,46,44,42,40],[39,48,46,44,42,40],[8,25],[8,25],[27,52,50,32,30,28],[10,19,17,15,13,11],[39,48,46,44,42,40],34,6]

$$$$
