CS(=O)(=O)Nc1ccccc1Nc1nc(Nc2ccc(C(=O)OCc3ccccc3)cc2)ncc1F
  MOE2019           3D

 58 61  0  0  0  0  0  0  0  0999 V2000
   23.0320    4.2180   -4.7380 C   0  0  0  0  0  0  0  0  0  0  0  0
   22.8050    3.8370   -5.7240 H   0  0  0  0  0  0  0  0  0  0  0  0
   22.9220    3.3600   -4.0910 H   0  0  0  0  0  0  0  0  0  0  0  0
   24.0880    4.4460   -4.7580 H   0  0  0  0  0  0  0  0  0  0  0  0
   22.0050    5.6030   -4.2720 S   0  0  0  0  0  0  0  0  0  0  0  0
   22.3250    6.7060   -5.1040 O   0  0  0  0  0  0  0  0  0  0  0  0
   20.6520    5.1840   -4.2910 O   0  0  0  0  0  0  0  0  0  0  0  0
   22.4280    5.9370   -2.6840 N   0  0  0  0  0  0  0  0  0  0  0  0
   22.1700    5.1110   -2.1300 H   0  0  0  0  0  0  0  0  0  0  0  0
   23.7950    6.2000   -2.4550 C   0  0  0  0  0  0  0  0  0  0  0  0
   24.4670    7.2320   -3.1140 C   0  0  0  0  0  0  0  0  0  0  0  0
   23.9520    7.8910   -3.7640 H   0  0  0  0  0  0  0  0  0  0  0  0
   25.8310    7.4060   -2.9110 C   0  0  0  0  0  0  0  0  0  0  0  0
   26.3450    8.1810   -3.4200 H   0  0  0  0  0  0  0  0  0  0  0  0
   26.5240    6.5640   -2.0470 C   0  0  0  0  0  0  0  0  0  0  0  0
   27.5640    6.7010   -1.9220 H   0  0  0  0  0  0  0  0  0  0  0  0
   25.8580    5.5550   -1.3550 C   0  0  0  0  0  0  0  0  0  0  0  0
   26.3870    4.9340   -0.6820 H   0  0  0  0  0  0  0  0  0  0  0  0
   24.4880    5.3860   -1.5400 C   0  0  0  0  0  0  0  0  0  0  0  0
   23.7810    4.4330   -0.7530 N   0  0  0  0  0  0  0  0  0  0  0  0
   23.0900    4.8070   -0.0830 H   0  0  0  0  0  0  0  0  0  0  0  0
   23.7520    3.0510   -0.9700 C   0  0  0  0  0  0  0  0  0  0  0  0
   24.5370    2.4950   -1.8940 N   0  0  0  0  0  0  0  0  0  0  0  0
   24.4420    1.1590   -2.0560 C   0  0  0  0  0  0  0  0  0  0  0  0
   25.3190    0.6110   -2.9850 N   0  0  0  0  0  0  0  0  0  0  0  0
   26.0620    1.2480   -3.3090 H   0  0  0  0  0  0  0  0  0  0  0  0
   25.4440   -0.7460   -3.3530 C   0  0  0  0  0  0  0  0  0  0  0  0
   24.3410   -1.5450   -3.6850 C   0  0  0  0  0  0  0  0  0  0  0  0
   23.3600   -1.1560   -3.6030 H   0  0  0  0  0  0  0  0  0  0  0  0
   24.5480   -2.8410   -4.1520 C   0  0  0  0  0  0  0  0  0  0  0  0
   23.7220   -3.4490   -4.4130 H   0  0  0  0  0  0  0  0  0  0  0  0
   25.8470   -3.3580   -4.2870 C   0  0  0  0  0  0  0  0  0  0  0  0
   26.0970   -4.7000   -4.7960 C   0  0  0  0  0  0  0  0  0  0  0  0
   25.4410   -5.2650   -5.6700 O   0  0  0  0  0  0  0  0  0  0  0  0
   27.1560   -5.3390   -4.2540 O   0  0  0  0  0  0  0  0  0  0  0  0
   27.7350   -6.5850   -4.6970 C   0  0  0  0  0  0  0  0  0  0  0  0
   28.2060   -6.4360   -5.6600 H   0  0  0  0  0  0  0  0  0  0  0  0
   26.9730   -7.3500   -4.7070 H   0  0  0  0  0  0  0  0  0  0  0  0
   28.8050   -6.9440   -3.6740 C   0  0  0  0  0  0  0  0  0  0  0  0
   29.5480   -5.9600   -3.0120 C   0  0  0  0  0  0  0  0  0  0  0  0
   29.3610   -4.9340   -3.1930 H   0  0  0  0  0  0  0  0  0  0  0  0
   30.5560   -6.3150   -2.1200 C   0  0  0  0  0  0  0  0  0  0  0  0
   31.1140   -5.5630   -1.6240 H   0  0  0  0  0  0  0  0  0  0  0  0
   30.8410   -7.6550   -1.8880 C   0  0  0  0  0  0  0  0  0  0  0  0
   31.6180   -7.9240   -1.2190 H   0  0  0  0  0  0  0  0  0  0  0  0
   30.1070   -8.6400   -2.5390 C   0  0  0  0  0  0  0  0  0  0  0  0
   30.3310   -9.6610   -2.3680 H   0  0  0  0  0  0  0  0  0  0  0  0
   29.0880   -8.2860   -3.4200 C   0  0  0  0  0  0  0  0  0  0  0  0
   28.5370   -9.0470   -3.9110 H   0  0  0  0  0  0  0  0  0  0  0  0
   26.9320   -2.5470   -3.9210 C   0  0  0  0  0  0  0  0  0  0  0  0
   27.9180   -2.9210   -4.0180 H   0  0  0  0  0  0  0  0  0  0  0  0
   26.7380   -1.2550   -3.4580 C   0  0  0  0  0  0  0  0  0  0  0  0
   27.5690   -0.6510   -3.2000 H   0  0  0  0  0  0  0  0  0  0  0  0
   23.6150    0.3440   -1.3700 N   0  0  0  0  0  0  0  0  0  0  0  0
   22.8270    0.8890   -0.4450 C   0  0  0  0  0  0  0  0  0  0  0  0
   22.1690    0.2680    0.1080 H   0  0  0  0  0  0  0  0  0  0  0  0
   22.8830    2.2500   -0.2250 C   0  0  0  0  0  0  0  0  0  0  0  0
   22.0850    2.8020    0.7060 F   0  0  0  0  0  0  0  0  0  0  0  0
  1  2  1  0  0  0  0
  1  3  1  0  0  0  0
  1  4  1  0  0  0  0
  1  5  1  0  0  0  0
  5  6  2  0  0  0  0
  5  7  2  0  0  0  0
  5  8  1  0  0  0  0
  8  9  1  0  0  0  0
  8 10  1  0  0  0  0
 10 11  1  0  0  0  0
 10 19  2  0  0  0  0
 11 12  1  0  0  0  0
 11 13  2  0  0  0  0
 13 14  1  0  0  0  0
 13 15  1  0  0  0  0
 15 16  1  0  0  0  0
 15 17  2  0  0  0  0
 17 18  1  0  0  0  0
 17 19  1  0  0  0  0
 19 20  1  0  0  0  0
 20 21  1  0  0  0  0
 20 22  1  0  0  0  0
 22 23  1  0  0  0  0
 22 57  2  0  0  0  0
 23 24  2  0  0  0  0
 24 25  1  0  0  0  0
 24 54  1  0  0  0  0
 25 26  1  0  0  0  0
 25 27  1  0  0  0  0
 27 28  1  0  0  0  0
 27 52  2  0  0  0  0
 28 29  1  0  0  0  0
 28 30  2  0  0  0  0
 30 31  1  0  0  0  0
 30 32  1  0  0  0  0
 32 33  1  0  0  0  0
 32 50  2  0  0  0  0
 33 34  2  0  0  0  0
 33 35  1  0  0  0  0
 35 36  1  0  0  0  0
 36 37  1  0  0  0  0
 36 38  1  0  0  0  0
 36 39  1  0  0  0  0
 39 40  1  0  0  0  0
 39 48  2  0  0  0  0
 40 41  1  0  0  0  0
 40 42  2  0  0  0  0
 42 43  1  0  0  0  0
 42 44  1  0  0  0  0
 44 45  1  0  0  0  0
 44 46  2  0  0  0  0
 46 47  1  0  0  0  0
 46 48  1  0  0  0  0
 48 49  1  0  0  0  0
 50 51  1  0  0  0  0
 50 52  1  0  0  0  0
 52 53  1  0  0  0  0
 54 55  2  0  0  0  0
 55 56  1  0  0  0  0
 55 57  1  0  0  0  0
 57 58  1  0  0  0  0
M  END
>  <rseq>
1

>  <mseq>
6

>  <S>
-8.4398212

>  <rmsd_refine>
2.0108521

>  <E_conf>
-112.40112

>  <E_place>
-55.16959

>  <E_score1>
-11.04614

>  <E_refine>
-50.480869

>  <E_score2>
-8.4398212

>  <Standard ValuenM>
51.299999

>  <PLIF_pronum>
1

>  <PLIF_raw>
[[34,39,48,46,44,42,40,39,48,46,44,42,40],[5555,852,852,852,852,852,852,5483,5483,5483,5483,5483,5483],[20201,62,62,62,62,62,62,10179,10179,10179,10179,10179,10179],[9,10,10,10,10,10,10,10,10,10,10,10,10],[2.321643374,1,1,1,1,1,1,0.6,0.6,0.6,0.6,0.6,0.6]]

>  <FP:PLIF>
2 24 25 3

>  <PLIF_ligidx>
[[39,48,46,44,42,40],[39,48,46,44,42,40],[39,48,46,44,42,40],34]

$$$$
