CS(=O)(=O)Nc1ccccc1Nc1nc(Nc2ccc(C(=O)OCc3ccccc3)cc2)ncc1F
  MOE2019           3D

 58 61  0  0  0  0  0  0  0  0999 V2000
   22.4630    8.5610    0.3840 C   0  0  0  0  0  0  0  0  0  0  0  0
   23.0250    9.4080    0.0150 H   0  0  0  0  0  0  0  0  0  0  0  0
   22.3640    8.7360    1.4470 H   0  0  0  0  0  0  0  0  0  0  0  0
   21.4740    8.6830   -0.0360 H   0  0  0  0  0  0  0  0  0  0  0  0
   23.2200    6.9960   -0.0160 S   0  0  0  0  0  0  0  0  0  0  0  0
   23.2480    6.8500   -1.4290 O   0  0  0  0  0  0  0  0  0  0  0  0
   24.4780    6.9160    0.6430 O   0  0  0  0  0  0  0  0  0  0  0  0
   22.1770    5.8450    0.6230 N   0  0  0  0  0  0  0  0  0  0  0  0
   21.5260    6.3290    1.2570 H   0  0  0  0  0  0  0  0  0  0  0  0
   22.7810    4.7430    1.2730 C   0  0  0  0  0  0  0  0  0  0  0  0
   22.5130    4.5760    2.6330 C   0  0  0  0  0  0  0  0  0  0  0  0
   21.8610    5.2440    3.1340 H   0  0  0  0  0  0  0  0  0  0  0  0
   23.1150    3.5370    3.3370 C   0  0  0  0  0  0  0  0  0  0  0  0
   22.9160    3.4140    4.3710 H   0  0  0  0  0  0  0  0  0  0  0  0
   23.9850    2.6630    2.6900 C   0  0  0  0  0  0  0  0  0  0  0  0
   24.4520    1.8850    3.2370 H   0  0  0  0  0  0  0  0  0  0  0  0
   24.2410    2.8070    1.3300 C   0  0  0  0  0  0  0  0  0  0  0  0
   24.9140    2.1430    0.8600 H   0  0  0  0  0  0  0  0  0  0  0  0
   23.6190    3.8250    0.6030 C   0  0  0  0  0  0  0  0  0  0  0  0
   23.8240    3.9630   -0.8060 N   0  0  0  0  0  0  0  0  0  0  0  0
   23.6930    4.9150   -1.1870 H   0  0  0  0  0  0  0  0  0  0  0  0
   23.9830    2.9590   -1.7700 C   0  0  0  0  0  0  0  0  0  0  0  0
   23.9530    1.6710   -1.4280 N   0  0  0  0  0  0  0  0  0  0  0  0
   24.1300    0.7640   -2.4020 C   0  0  0  0  0  0  0  0  0  0  0  0
   24.1580   -0.5590   -1.9700 N   0  0  0  0  0  0  0  0  0  0  0  0
   24.0640   -0.6850   -0.9510 H   0  0  0  0  0  0  0  0  0  0  0  0
   24.6400   -1.6570   -2.7050 C   0  0  0  0  0  0  0  0  0  0  0  0
   25.6360   -2.4400   -2.1230 C   0  0  0  0  0  0  0  0  0  0  0  0
   26.0450   -2.1700   -1.1860 H   0  0  0  0  0  0  0  0  0  0  0  0
   26.0920   -3.5700   -2.7800 C   0  0  0  0  0  0  0  0  0  0  0  0
   26.8440   -4.1580   -2.3230 H   0  0  0  0  0  0  0  0  0  0  0  0
   25.5740   -3.9380   -4.0350 C   0  0  0  0  0  0  0  0  0  0  0  0
   26.1030   -5.1010   -4.7400 C   0  0  0  0  0  0  0  0  0  0  0  0
   25.6740   -5.5480   -5.8020 O   0  0  0  0  0  0  0  0  0  0  0  0
   27.1590   -5.7070   -4.1580 O   0  0  0  0  0  0  0  0  0  0  0  0
   27.9650   -6.7650   -4.6990 C   0  0  0  0  0  0  0  0  0  0  0  0
   28.4730   -6.4150   -5.5890 H   0  0  0  0  0  0  0  0  0  0  0  0
   27.3440   -7.6300   -4.8670 H   0  0  0  0  0  0  0  0  0  0  0  0
   28.9930   -7.0700   -3.6220 C   0  0  0  0  0  0  0  0  0  0  0  0
   29.6670   -6.0380   -2.9640 C   0  0  0  0  0  0  0  0  0  0  0  0
   29.4450   -5.0270   -3.1890 H   0  0  0  0  0  0  0  0  0  0  0  0
   30.6510   -6.3250   -2.0220 C   0  0  0  0  0  0  0  0  0  0  0  0
   31.1620   -5.5370   -1.5310 H   0  0  0  0  0  0  0  0  0  0  0  0
   30.9740   -7.6450   -1.7340 C   0  0  0  0  0  0  0  0  0  0  0  0
   31.7330   -7.8630   -1.0270 H   0  0  0  0  0  0  0  0  0  0  0  0
   30.3000   -8.6790   -2.3750 C   0  0  0  0  0  0  0  0  0  0  0  0
   30.5490   -9.6850   -2.1550 H   0  0  0  0  0  0  0  0  0  0  0  0
   29.3070   -8.3930   -3.3080 C   0  0  0  0  0  0  0  0  0  0  0  0
   28.8000   -9.1880   -3.7910 H   0  0  0  0  0  0  0  0  0  0  0  0
   24.5630   -3.1440   -4.5990 C   0  0  0  0  0  0  0  0  0  0  0  0
   24.1430   -3.4180   -5.5320 H   0  0  0  0  0  0  0  0  0  0  0  0
   24.1160   -1.9950   -3.9560 C   0  0  0  0  0  0  0  0  0  0  0  0
   23.3780   -1.3830   -4.4050 H   0  0  0  0  0  0  0  0  0  0  0  0
   24.3060    1.0510   -3.7070 N   0  0  0  0  0  0  0  0  0  0  0  0
   24.3150    2.3320   -4.0700 C   0  0  0  0  0  0  0  0  0  0  0  0
   24.4420    2.5830   -5.0920 H   0  0  0  0  0  0  0  0  0  0  0  0
   24.1620    3.3110   -3.1100 C   0  0  0  0  0  0  0  0  0  0  0  0
   24.1870    4.6020   -3.4810 F   0  0  0  0  0  0  0  0  0  0  0  0
  1  2  1  0  0  0  0
  1  3  1  0  0  0  0
  1  4  1  0  0  0  0
  1  5  1  0  0  0  0
  5  6  2  0  0  0  0
  5  7  2  0  0  0  0
  5  8  1  0  0  0  0
  8  9  1  0  0  0  0
  8 10  1  0  0  0  0
 10 11  1  0  0  0  0
 10 19  2  0  0  0  0
 11 12  1  0  0  0  0
 11 13  2  0  0  0  0
 13 14  1  0  0  0  0
 13 15  1  0  0  0  0
 15 16  1  0  0  0  0
 15 17  2  0  0  0  0
 17 18  1  0  0  0  0
 17 19  1  0  0  0  0
 19 20  1  0  0  0  0
 20 21  1  0  0  0  0
 20 22  1  0  0  0  0
 22 23  1  0  0  0  0
 22 57  2  0  0  0  0
 23 24  2  0  0  0  0
 24 25  1  0  0  0  0
 24 54  1  0  0  0  0
 25 26  1  0  0  0  0
 25 27  1  0  0  0  0
 27 28  1  0  0  0  0
 27 52  2  0  0  0  0
 28 29  1  0  0  0  0
 28 30  2  0  0  0  0
 30 31  1  0  0  0  0
 30 32  1  0  0  0  0
 32 33  1  0  0  0  0
 32 50  2  0  0  0  0
 33 34  2  0  0  0  0
 33 35  1  0  0  0  0
 35 36  1  0  0  0  0
 36 37  1  0  0  0  0
 36 38  1  0  0  0  0
 36 39  1  0  0  0  0
 39 40  1  0  0  0  0
 39 48  2  0  0  0  0
 40 41  1  0  0  0  0
 40 42  2  0  0  0  0
 42 43  1  0  0  0  0
 42 44  1  0  0  0  0
 44 45  1  0  0  0  0
 44 46  2  0  0  0  0
 46 47  1  0  0  0  0
 46 48  1  0  0  0  0
 48 49  1  0  0  0  0
 50 51  1  0  0  0  0
 50 52  1  0  0  0  0
 52 53  1  0  0  0  0
 54 55  2  0  0  0  0
 55 56  1  0  0  0  0
 55 57  1  0  0  0  0
 57 58  1  0  0  0  0
M  END
>  <rseq>
1

>  <mseq>
6

>  <S>
-7.8783436

>  <rmsd_refine>
2.4119461

>  <E_conf>
-113.75225

>  <E_place>
-83.588493

>  <E_score1>
-12.913644

>  <E_refine>
-50.810513

>  <E_score2>
-7.8783436

>  <Standard ValuenM>
51.299999

>  <PLIF_pronum>
1

>  <PLIF_raw>
[[34,25,39,48,46,44,42,40,39,48,46,44,42,40],[5555,899,852,852,852,852,852,852,5483,5483,5483,5483,5483,5483],[20201,65,62,62,62,62,62,62,10179,10179,10179,10179,10179,10179],[9,1,10,10,10,10,10,10,10,10,10,10,10,10],[3.749146138,2.1,1,1,1,1,1,1,0.8,0.8,0.8,0.8,0.8,0.8]]

>  <FP:PLIF>
2 24 20 28 25 3 4

>  <PLIF_ligidx>
[[39,48,46,44,42,40],[39,48,46,44,42,40],25,25,[39,48,46,44,42,40],34,34]

$$$$
