CS(=O)(=O)Nc1ccccc1Nc1nc(Nc2ccc(C(=O)OCc3ccccc3)cc2)ncc1F
  MOE2019           3D

 58 61  0  0  0  0  0  0  0  0999 V2000
   25.3610    6.5820    2.1800 C   0  0  0  0  0  0  0  0  0  0  0  0
   24.8470    6.6090    3.1310 H   0  0  0  0  0  0  0  0  0  0  0  0
   25.1940    7.5600    1.7500 H   0  0  0  0  0  0  0  0  0  0  0  0
   26.4110    6.5380    2.4350 H   0  0  0  0  0  0  0  0  0  0  0  0
   24.8220    5.2410    1.1350 S   0  0  0  0  0  0  0  0  0  0  0  0
   23.4470    5.4270    0.8240 O   0  0  0  0  0  0  0  0  0  0  0  0
   25.1560    4.0100    1.7620 O   0  0  0  0  0  0  0  0  0  0  0  0
   25.7400    5.3980   -0.2590 N   0  0  0  0  0  0  0  0  0  0  0  0
   26.2490    6.2920   -0.2100 H   0  0  0  0  0  0  0  0  0  0  0  0
   25.1140    5.2560   -1.5220 C   0  0  0  0  0  0  0  0  0  0  0  0
   25.2870    6.3070   -2.4230 C   0  0  0  0  0  0  0  0  0  0  0  0
   25.8440    7.1640   -2.1430 H   0  0  0  0  0  0  0  0  0  0  0  0
   24.7230    6.2370   -3.6930 C   0  0  0  0  0  0  0  0  0  0  0  0
   24.8460    7.0440   -4.3690 H   0  0  0  0  0  0  0  0  0  0  0  0
   24.0070    5.1090   -4.0840 C   0  0  0  0  0  0  0  0  0  0  0  0
   23.5870    5.0630   -5.0560 H   0  0  0  0  0  0  0  0  0  0  0  0
   23.8410    4.0430   -3.2040 C   0  0  0  0  0  0  0  0  0  0  0  0
   23.2960    3.1910   -3.5160 H   0  0  0  0  0  0  0  0  0  0  0  0
   24.3760    4.1150   -1.9150 C   0  0  0  0  0  0  0  0  0  0  0  0
   24.1220    3.0560   -1.0030 N   0  0  0  0  0  0  0  0  0  0  0  0
   23.8050    3.3280   -0.0580 H   0  0  0  0  0  0  0  0  0  0  0  0
   23.9310    1.7270   -1.3690 C   0  0  0  0  0  0  0  0  0  0  0  0
   24.8410    1.1340   -2.1380 N   0  0  0  0  0  0  0  0  0  0  0  0
   24.6680   -0.1750   -2.3900 C   0  0  0  0  0  0  0  0  0  0  0  0
   25.7120   -0.7720   -3.0760 N   0  0  0  0  0  0  0  0  0  0  0  0
   26.3340   -0.1200   -3.5760 H   0  0  0  0  0  0  0  0  0  0  0  0
   25.9180   -2.1400   -3.3140 C   0  0  0  0  0  0  0  0  0  0  0  0
   25.8540   -3.1270   -2.3250 C   0  0  0  0  0  0  0  0  0  0  0  0
   25.5870   -2.8720   -1.3350 H   0  0  0  0  0  0  0  0  0  0  0  0
   26.1790   -4.4400   -2.6590 C   0  0  0  0  0  0  0  0  0  0  0  0
   26.1600   -5.1910   -1.9110 H   0  0  0  0  0  0  0  0  0  0  0  0
   26.5400   -4.7730   -3.9800 C   0  0  0  0  0  0  0  0  0  0  0  0
   26.9310   -6.0970   -4.3980 C   0  0  0  0  0  0  0  0  0  0  0  0
   26.6130   -6.5910   -5.4780 O   0  0  0  0  0  0  0  0  0  0  0  0
   27.7520   -6.7640   -3.5730 O   0  0  0  0  0  0  0  0  0  0  0  0
   28.5210   -7.8660   -4.0740 C   0  0  0  0  0  0  0  0  0  0  0  0
   28.9170   -7.6150   -5.0480 H   0  0  0  0  0  0  0  0  0  0  0  0
   27.9100   -8.7550   -4.0600 H   0  0  0  0  0  0  0  0  0  0  0  0
   29.6700   -8.0530   -3.1150 C   0  0  0  0  0  0  0  0  0  0  0  0
   30.2980   -6.9800   -2.4790 C   0  0  0  0  0  0  0  0  0  0  0  0
   29.9800   -5.9850   -2.6580 H   0  0  0  0  0  0  0  0  0  0  0  0
   31.3510   -7.2090   -1.6010 C   0  0  0  0  0  0  0  0  0  0  0  0
   31.8230   -6.3950   -1.1160 H   0  0  0  0  0  0  0  0  0  0  0  0
   31.7800   -8.5100   -1.3590 C   0  0  0  0  0  0  0  0  0  0  0  0
   32.5690   -8.6930   -0.6810 H   0  0  0  0  0  0  0  0  0  0  0  0
   31.1620   -9.5770   -1.9970 C   0  0  0  0  0  0  0  0  0  0  0  0
   31.4750  -10.5680   -1.8050 H   0  0  0  0  0  0  0  0  0  0  0  0
   30.1230   -9.3470   -2.8850 C   0  0  0  0  0  0  0  0  0  0  0  0
   29.6720  -10.1650   -3.3850 H   0  0  0  0  0  0  0  0  0  0  0  0
   26.5670   -3.7750   -4.9490 C   0  0  0  0  0  0  0  0  0  0  0  0
   26.8460   -4.0050   -5.9430 H   0  0  0  0  0  0  0  0  0  0  0  0
   26.2670   -2.4790   -4.6120 C   0  0  0  0  0  0  0  0  0  0  0  0
   26.3140   -1.7430   -5.3440 H   0  0  0  0  0  0  0  0  0  0  0  0
   23.6010   -0.9110   -2.0210 N   0  0  0  0  0  0  0  0  0  0  0  0
   22.6620   -0.3090   -1.2930 C   0  0  0  0  0  0  0  0  0  0  0  0
   21.7980   -0.8470   -1.0130 H   0  0  0  0  0  0  0  0  0  0  0  0
   22.8270    1.0070   -0.9150 C   0  0  0  0  0  0  0  0  0  0  0  0
   21.9150    1.5870   -0.1160 F   0  0  0  0  0  0  0  0  0  0  0  0
  1  2  1  0  0  0  0
  1  3  1  0  0  0  0
  1  4  1  0  0  0  0
  1  5  1  0  0  0  0
  5  6  2  0  0  0  0
  5  7  2  0  0  0  0
  5  8  1  0  0  0  0
  8  9  1  0  0  0  0
  8 10  1  0  0  0  0
 10 11  1  0  0  0  0
 10 19  2  0  0  0  0
 11 12  1  0  0  0  0
 11 13  2  0  0  0  0
 13 14  1  0  0  0  0
 13 15  1  0  0  0  0
 15 16  1  0  0  0  0
 15 17  2  0  0  0  0
 17 18  1  0  0  0  0
 17 19  1  0  0  0  0
 19 20  1  0  0  0  0
 20 21  1  0  0  0  0
 20 22  1  0  0  0  0
 22 23  1  0  0  0  0
 22 57  2  0  0  0  0
 23 24  2  0  0  0  0
 24 25  1  0  0  0  0
 24 54  1  0  0  0  0
 25 26  1  0  0  0  0
 25 27  1  0  0  0  0
 27 28  1  0  0  0  0
 27 52  2  0  0  0  0
 28 29  1  0  0  0  0
 28 30  2  0  0  0  0
 30 31  1  0  0  0  0
 30 32  1  0  0  0  0
 32 33  1  0  0  0  0
 32 50  2  0  0  0  0
 33 34  2  0  0  0  0
 33 35  1  0  0  0  0
 35 36  1  0  0  0  0
 36 37  1  0  0  0  0
 36 38  1  0  0  0  0
 36 39  1  0  0  0  0
 39 40  1  0  0  0  0
 39 48  2  0  0  0  0
 40 41  1  0  0  0  0
 40 42  2  0  0  0  0
 42 43  1  0  0  0  0
 42 44  1  0  0  0  0
 44 45  1  0  0  0  0
 44 46  2  0  0  0  0
 46 47  1  0  0  0  0
 46 48  1  0  0  0  0
 48 49  1  0  0  0  0
 50 51  1  0  0  0  0
 50 52  1  0  0  0  0
 52 53  1  0  0  0  0
 54 55  2  0  0  0  0
 55 56  1  0  0  0  0
 55 57  1  0  0  0  0
 57 58  1  0  0  0  0
M  END
>  <rseq>
1

>  <mseq>
6

>  <S>
-7.8539534

>  <rmsd_refine>
1.0907832

>  <E_conf>
-104.34267

>  <E_place>
-117.37658

>  <E_score1>
-11.036013

>  <E_refine>
-36.531673

>  <E_score2>
-7.8539534

>  <Standard ValuenM>
51.299999

>  <PLIF_pronum>
1

>  <PLIF_raw>
[[30,30,30,30,30,30,39,48,46,44,42,40],[850,852,848,844,843,846,852,852,852,852,852,852],[62,62,62,62,62,62,62,62,62,62,62,62],[10,10,10,10,10,10,10,10,10,10,10,10],[0.7,0.7,0.7,0.7,0.7,0.7,0.7,0.7,0.7,0.7,0.7,0.7]]

>  <FP:PLIF>
2

>  <PLIF_ligidx>
[[30,30,30,30,30,30,39,48,46,44,42,40]]

$$$$
