CS(=O)(=O)Nc1ccccc1Nc1nc(Nc2ccc(Cl)cc2)ncc1F
  MOE2019           3D

 42 44  0  0  0  0  0  0  0  0999 V2000
   25.8530    7.0700   -1.7820 C   0  0  0  0  0  0  0  0  0  0  0  0
   26.8610    7.4600   -1.7370 H   0  0  0  0  0  0  0  0  0  0  0  0
   25.2540    7.7780   -1.2270 H   0  0  0  0  0  0  0  0  0  0  0  0
   25.5680    7.1810   -2.8200 H   0  0  0  0  0  0  0  0  0  0  0  0
   25.7260    5.3940   -1.1820 S   0  0  0  0  0  0  0  0  0  0  0  0
   26.0350    5.3770    0.2050 O   0  0  0  0  0  0  0  0  0  0  0  0
   26.5310    4.5620   -2.0050 O   0  0  0  0  0  0  0  0  0  0  0  0
   24.1070    4.9900   -1.3690 N   0  0  0  0  0  0  0  0  0  0  0  0
   23.5870    5.8580   -1.1720 H   0  0  0  0  0  0  0  0  0  0  0  0
   23.7480    4.5260   -2.6520 C   0  0  0  0  0  0  0  0  0  0  0  0
   23.0860    5.4120   -3.4990 C   0  0  0  0  0  0  0  0  0  0  0  0
   22.8750    6.4010   -3.1810 H   0  0  0  0  0  0  0  0  0  0  0  0
   22.7010    4.9980   -4.7700 C   0  0  0  0  0  0  0  0  0  0  0  0
   22.1920    5.6720   -5.4080 H   0  0  0  0  0  0  0  0  0  0  0  0
   22.9840    3.7050   -5.2050 C   0  0  0  0  0  0  0  0  0  0  0  0
   22.6960    3.4000   -6.1780 H   0  0  0  0  0  0  0  0  0  0  0  0
   23.6380    2.8090   -4.3660 C   0  0  0  0  0  0  0  0  0  0  0  0
   23.8420    1.8310   -4.7160 H   0  0  0  0  0  0  0  0  0  0  0  0
   24.0010    3.2040   -3.0750 C   0  0  0  0  0  0  0  0  0  0  0  0
   24.5720    2.2710   -2.1640 N   0  0  0  0  0  0  0  0  0  0  0  0
   24.6160    2.5950   -1.1850 H   0  0  0  0  0  0  0  0  0  0  0  0
   24.4090    0.9020   -2.3510 C   0  0  0  0  0  0  0  0  0  0  0  0
   25.3300    0.2390   -3.0480 N   0  0  0  0  0  0  0  0  0  0  0  0
   25.1220   -1.0770   -3.2480 C   0  0  0  0  0  0  0  0  0  0  0  0
   26.1030   -1.7350   -3.9820 N   0  0  0  0  0  0  0  0  0  0  0  0
   26.7050   -1.1270   -4.5570 H   0  0  0  0  0  0  0  0  0  0  0  0
   26.4860   -3.0980   -3.9080 C   0  0  0  0  0  0  0  0  0  0  0  0
   26.3510   -3.8340   -2.7270 C   0  0  0  0  0  0  0  0  0  0  0  0
   25.8910   -3.4090   -1.8740 H   0  0  0  0  0  0  0  0  0  0  0  0
   26.8590   -5.1260   -2.6670 C   0  0  0  0  0  0  0  0  0  0  0  0
   26.7640   -5.6870   -1.7780 H   0  0  0  0  0  0  0  0  0  0  0  0
   27.5060   -5.6820   -3.7740 C   0  0  0  0  0  0  0  0  0  0  0  0
   28.2040   -7.2650   -3.6760 Cl  0  0  0  0  0  0  0  0  0  0  0  0
   27.6030   -4.9580   -4.9630 C   0  0  0  0  0  0  0  0  0  0  0  0
   28.0820   -5.3890   -5.8040 H   0  0  0  0  0  0  0  0  0  0  0  0
   27.0820   -3.6730   -5.0350 C   0  0  0  0  0  0  0  0  0  0  0  0
   27.1480   -3.1310   -5.9400 H   0  0  0  0  0  0  0  0  0  0  0  0
   24.0440   -1.7670   -2.8180 N   0  0  0  0  0  0  0  0  0  0  0  0
   23.1230   -1.1090   -2.1140 C   0  0  0  0  0  0  0  0  0  0  0  0
   22.2680   -1.6270   -1.7660 H   0  0  0  0  0  0  0  0  0  0  0  0
   23.2940    0.2320   -1.8490 C   0  0  0  0  0  0  0  0  0  0  0  0
   22.3780    0.8810   -1.1140 F   0  0  0  0  0  0  0  0  0  0  0  0
  1  2  1  0  0  0  0
  1  3  1  0  0  0  0
  1  4  1  0  0  0  0
  1  5  1  0  0  0  0
  5  6  2  0  0  0  0
  5  7  2  0  0  0  0
  5  8  1  0  0  0  0
  8  9  1  0  0  0  0
  8 10  1  0  0  0  0
 10 11  1  0  0  0  0
 10 19  2  0  0  0  0
 11 12  1  0  0  0  0
 11 13  2  0  0  0  0
 13 14  1  0  0  0  0
 13 15  1  0  0  0  0
 15 16  1  0  0  0  0
 15 17  2  0  0  0  0
 17 18  1  0  0  0  0
 17 19  1  0  0  0  0
 19 20  1  0  0  0  0
 20 21  1  0  0  0  0
 20 22  1  0  0  0  0
 22 23  1  0  0  0  0
 22 41  2  0  0  0  0
 23 24  2  0  0  0  0
 24 25  1  0  0  0  0
 24 38  1  0  0  0  0
 25 26  1  0  0  0  0
 25 27  1  0  0  0  0
 27 28  1  0  0  0  0
 27 36  2  0  0  0  0
 28 29  1  0  0  0  0
 28 30  2  0  0  0  0
 30 31  1  0  0  0  0
 30 32  1  0  0  0  0
 32 33  1  0  0  0  0
 32 34  2  0  0  0  0
 34 35  1  0  0  0  0
 34 36  1  0  0  0  0
 36 37  1  0  0  0  0
 38 39  2  0  0  0  0
 39 40  1  0  0  0  0
 39 41  1  0  0  0  0
 41 42  1  0  0  0  0
M  END
>  <rseq>
1

>  <mseq>
7

>  <S>
-6.4032855

>  <rmsd_refine>
1.2870188

>  <E_conf>
-127.96565

>  <E_place>
-97.689491

>  <E_score1>
-11.567606

>  <E_refine>
-31.87826

>  <E_score2>
-6.4032855

>  <Standard ValuenM>
53.900002

>  <PLIF_pronum>
1

>  <PLIF_raw>
[[6,10,19,17,15,13,11],[6520,6925,6925,6925,6925,6925,6925],[221046,221182,221182,221182,221182,221182,221182],[6,10,10,10,10,10,10],[0.7,0.5,0.5,0.5,0.5,0.5,0.5]]

>  <FP:PLIF>
5 14

>  <PLIF_ligidx>
[6,[10,19,17,15,13,11]]

$$$$
