CS(=O)(=O)Nc1ccccc1Nc1nc(Nc2ccc(Cl)cc2)ncc1F
  MOE2019           3D

 42 44  0  0  0  0  0  0  0  0999 V2000
   25.8130    5.8430    0.9590 C   0  0  0  0  0  0  0  0  0  0  0  0
   26.2930    6.7180    1.3770 H   0  0  0  0  0  0  0  0  0  0  0  0
   26.5370    5.0480    1.0600 H   0  0  0  0  0  0  0  0  0  0  0  0
   25.0170    5.6190    1.6550 H   0  0  0  0  0  0  0  0  0  0  0  0
   25.2430    6.0980   -0.7120 S   0  0  0  0  0  0  0  0  0  0  0  0
   26.3710    6.2510   -1.5640 O   0  0  0  0  0  0  0  0  0  0  0  0
   24.3080    7.1670   -0.7070 O   0  0  0  0  0  0  0  0  0  0  0  0
   24.4510    4.6730   -1.1060 N   0  0  0  0  0  0  0  0  0  0  0  0
   24.8610    3.8760   -0.6050 H   0  0  0  0  0  0  0  0  0  0  0  0
   24.1710    4.3820   -2.4660 C   0  0  0  0  0  0  0  0  0  0  0  0
   23.8220    5.3930   -3.3660 C   0  0  0  0  0  0  0  0  0  0  0  0
   23.7690    6.4040   -3.0580 H   0  0  0  0  0  0  0  0  0  0  0  0
   23.5260    5.0740   -4.6870 C   0  0  0  0  0  0  0  0  0  0  0  0
   23.2550    5.8450   -5.3600 H   0  0  0  0  0  0  0  0  0  0  0  0
   23.5860    3.7540   -5.1240 C   0  0  0  0  0  0  0  0  0  0  0  0
   23.3610    3.5150   -6.1320 H   0  0  0  0  0  0  0  0  0  0  0  0
   23.9360    2.7380   -4.2420 C   0  0  0  0  0  0  0  0  0  0  0  0
   23.9700    1.7420   -4.5970 H   0  0  0  0  0  0  0  0  0  0  0  0
   24.2140    3.0440   -2.9060 C   0  0  0  0  0  0  0  0  0  0  0  0
   24.4920    2.0150   -1.9610 N   0  0  0  0  0  0  0  0  0  0  0  0
   24.2230    2.2450   -0.9930 H   0  0  0  0  0  0  0  0  0  0  0  0
   24.3710    0.6720   -2.2970 C   0  0  0  0  0  0  0  0  0  0  0  0
   25.3460    0.0800   -2.9870 N   0  0  0  0  0  0  0  0  0  0  0  0
   25.1710   -1.2190   -3.3020 C   0  0  0  0  0  0  0  0  0  0  0  0
   26.2040   -1.8220   -4.0110 N   0  0  0  0  0  0  0  0  0  0  0  0
   26.8240   -1.1850   -4.5330 H   0  0  0  0  0  0  0  0  0  0  0  0
   26.5960   -3.1850   -3.9520 C   0  0  0  0  0  0  0  0  0  0  0  0
   26.4340   -3.9360   -2.7840 C   0  0  0  0  0  0  0  0  0  0  0  0
   25.9570   -3.5210   -1.9350 H   0  0  0  0  0  0  0  0  0  0  0  0
   26.9320   -5.2320   -2.7310 C   0  0  0  0  0  0  0  0  0  0  0  0
   26.8120   -5.8050   -1.8540 H   0  0  0  0  0  0  0  0  0  0  0  0
   27.5950   -5.7790   -3.8330 C   0  0  0  0  0  0  0  0  0  0  0  0
   28.2640   -7.3750   -3.7450 Cl  0  0  0  0  0  0  0  0  0  0  0  0
   27.7270   -5.0370   -5.0070 C   0  0  0  0  0  0  0  0  0  0  0  0
   28.2230   -5.4590   -5.8420 H   0  0  0  0  0  0  0  0  0  0  0  0
   27.2180   -3.7460   -5.0720 C   0  0  0  0  0  0  0  0  0  0  0  0
   27.3100   -3.1930   -5.9670 H   0  0  0  0  0  0  0  0  0  0  0  0
   24.0790   -1.9510   -2.9970 N   0  0  0  0  0  0  0  0  0  0  0  0
   23.1060   -1.3620   -2.3050 C   0  0  0  0  0  0  0  0  0  0  0  0
   22.2430   -1.9170   -2.0500 H   0  0  0  0  0  0  0  0  0  0  0  0
   23.2370   -0.0460   -1.9240 C   0  0  0  0  0  0  0  0  0  0  0  0
   22.2630    0.5350   -1.2040 F   0  0  0  0  0  0  0  0  0  0  0  0
  1  2  1  0  0  0  0
  1  3  1  0  0  0  0
  1  4  1  0  0  0  0
  1  5  1  0  0  0  0
  5  6  2  0  0  0  0
  5  7  2  0  0  0  0
  5  8  1  0  0  0  0
  8  9  1  0  0  0  0
  8 10  1  0  0  0  0
 10 11  1  0  0  0  0
 10 19  2  0  0  0  0
 11 12  1  0  0  0  0
 11 13  2  0  0  0  0
 13 14  1  0  0  0  0
 13 15  1  0  0  0  0
 15 16  1  0  0  0  0
 15 17  2  0  0  0  0
 17 18  1  0  0  0  0
 17 19  1  0  0  0  0
 19 20  1  0  0  0  0
 20 21  1  0  0  0  0
 20 22  1  0  0  0  0
 22 23  1  0  0  0  0
 22 41  2  0  0  0  0
 23 24  2  0  0  0  0
 24 25  1  0  0  0  0
 24 38  1  0  0  0  0
 25 26  1  0  0  0  0
 25 27  1  0  0  0  0
 27 28  1  0  0  0  0
 27 36  2  0  0  0  0
 28 29  1  0  0  0  0
 28 30  2  0  0  0  0
 30 31  1  0  0  0  0
 30 32  1  0  0  0  0
 32 33  1  0  0  0  0
 32 34  2  0  0  0  0
 34 35  1  0  0  0  0
 34 36  1  0  0  0  0
 36 37  1  0  0  0  0
 38 39  2  0  0  0  0
 39 40  1  0  0  0  0
 39 41  1  0  0  0  0
 41 42  1  0  0  0  0
M  END
>  <rseq>
1

>  <mseq>
7

>  <S>
-6.1571188

>  <rmsd_refine>
1.2716742

>  <E_conf>
-128.3875

>  <E_place>
-83.59362

>  <E_score1>
-10.724459

>  <E_refine>
-28.571815

>  <E_score2>
-6.1571188

>  <Standard ValuenM>
53.900002

>  <PLIF_pronum>
1

>  <PLIF_raw>
[[10,19,17,15,13,11],[6925,6925,6925,6925,6925,6925],[221182,221182,221182,221182,221182,221182],[10,10,10,10,10,10],[0.9,0.9,0.9,0.9,0.9,0.9]]

>  <FP:PLIF>
14

>  <PLIF_ligidx>
[[10,19,17,15,13,11]]

$$$$
