O=c1cc(-c2ccccc2)cc(-c2ccc3[nH]ccc3c2)n1O
  MOE2019           3D

 37 40  0  0  0  0  0  0  0  0999 V2000
   26.3640   -6.9320   -6.7930 O   0  0  0  0  0  0  0  0  0  0  0  0
   26.7650   -6.4920   -5.7010 C   0  0  0  0  0  0  0  0  0  0  0  0
   27.8410   -7.0630   -4.9680 C   0  0  0  0  0  0  0  0  0  0  0  0
   28.3270   -7.9050   -5.3860 H   0  0  0  0  0  0  0  0  0  0  0  0
   28.2490   -6.5390   -3.7680 C   0  0  0  0  0  0  0  0  0  0  0  0
   29.3580   -7.1380   -3.0240 C   0  0  0  0  0  0  0  0  0  0  0  0
   29.5600   -8.5270   -3.0200 C   0  0  0  0  0  0  0  0  0  0  0  0
   28.8890   -9.1630   -3.5350 H   0  0  0  0  0  0  0  0  0  0  0  0
   30.6420   -9.0840   -2.3470 C   0  0  0  0  0  0  0  0  0  0  0  0
   30.7950  -10.1320   -2.3630 H   0  0  0  0  0  0  0  0  0  0  0  0
   31.5240   -8.2680   -1.6490 C   0  0  0  0  0  0  0  0  0  0  0  0
   32.3450   -8.6940   -1.1310 H   0  0  0  0  0  0  0  0  0  0  0  0
   31.3270   -6.8920   -1.6300 C   0  0  0  0  0  0  0  0  0  0  0  0
   31.9960   -6.2680   -1.0990 H   0  0  0  0  0  0  0  0  0  0  0  0
   30.2600   -6.3300   -2.3160 C   0  0  0  0  0  0  0  0  0  0  0  0
   30.1420   -5.2780   -2.3100 H   0  0  0  0  0  0  0  0  0  0  0  0
   27.5960   -5.3680   -3.2880 C   0  0  0  0  0  0  0  0  0  0  0  0
   27.9160   -4.9520   -2.3730 H   0  0  0  0  0  0  0  0  0  0  0  0
   26.5960   -4.7440   -3.9970 C   0  0  0  0  0  0  0  0  0  0  0  0
   26.0800   -3.4240   -3.6530 C   0  0  0  0  0  0  0  0  0  0  0  0
   26.9840   -2.3350   -3.7590 C   0  0  0  0  0  0  0  0  0  0  0  0
   27.9630   -2.5230   -4.1110 H   0  0  0  0  0  0  0  0  0  0  0  0
   26.6160   -1.0520   -3.4150 C   0  0  0  0  0  0  0  0  0  0  0  0
   27.2980   -0.2440   -3.4800 H   0  0  0  0  0  0  0  0  0  0  0  0
   25.3030   -0.8480   -2.9850 C   0  0  0  0  0  0  0  0  0  0  0  0
   24.6730    0.3200   -2.6090 N   0  0  0  0  0  0  0  0  0  0  0  0
   25.1050    1.2590   -2.6040 H   0  0  0  0  0  0  0  0  0  0  0  0
   23.3810    0.0330   -2.2420 C   0  0  0  0  0  0  0  0  0  0  0  0
   22.7160    0.7860   -1.9070 H   0  0  0  0  0  0  0  0  0  0  0  0
   23.1830   -1.3020   -2.3910 C   0  0  0  0  0  0  0  0  0  0  0  0
   22.2850   -1.8130   -2.1710 H   0  0  0  0  0  0  0  0  0  0  0  0
   24.3810   -1.8840   -2.8700 C   0  0  0  0  0  0  0  0  0  0  0  0
   24.7750   -3.1940   -3.2110 C   0  0  0  0  0  0  0  0  0  0  0  0
   24.0880   -3.9960   -3.1200 H   0  0  0  0  0  0  0  0  0  0  0  0
   26.1390   -5.3720   -5.1550 N   0  0  0  0  0  0  0  0  0  0  0  0
   25.0140   -4.8650   -5.7910 O   0  0  0  0  0  0  0  0  0  0  0  0
   24.7670   -4.0600   -5.2890 H   0  0  0  0  0  0  0  0  0  0  0  0
  1  2  2  0  0  0  0
  2  3  1  0  0  0  0
  2 35  1  0  0  0  0
  3  4  1  0  0  0  0
  3  5  2  0  0  0  0
  5  6  1  0  0  0  0
  5 17  1  0  0  0  0
  6  7  1  0  0  0  0
  6 15  2  0  0  0  0
  7  8  1  0  0  0  0
  7  9  2  0  0  0  0
  9 10  1  0  0  0  0
  9 11  1  0  0  0  0
 11 12  1  0  0  0  0
 11 13  2  0  0  0  0
 13 14  1  0  0  0  0
 13 15  1  0  0  0  0
 15 16  1  0  0  0  0
 17 18  1  0  0  0  0
 17 19  2  0  0  0  0
 19 20  1  0  0  0  0
 19 35  1  0  0  0  0
 20 21  1  0  0  0  0
 20 33  2  0  0  0  0
 21 22  1  0  0  0  0
 21 23  2  0  0  0  0
 23 24  1  0  0  0  0
 23 25  1  0  0  0  0
 25 26  1  0  0  0  0
 25 32  2  0  0  0  0
 26 27  1  0  0  0  0
 26 28  1  0  0  0  0
 28 29  1  0  0  0  0
 28 30  2  0  0  0  0
 30 31  1  0  0  0  0
 30 32  1  0  0  0  0
 32 33  1  0  0  0  0
 33 34  1  0  0  0  0
 35 36  1  0  0  0  0
 36 37  1  0  0  0  0
M  END
>  <rseq>
1

>  <mseq>
8

>  <S>
-9.300066

>  <rmsd_refine>
1.2350563

>  <E_conf>
64.88205

>  <E_place>
-88.107796

>  <E_score1>
-12.875469

>  <E_refine>
-68.94722

>  <E_score2>
-9.300066

>  <Standard ValuenM>
250

>  <PLIF_pronum>
1

>  <PLIF_raw>
[[1,1,6,15,13,11,9,7],[5555,355,852,852,852,852,852,852],[20201,33,62,62,62,62,62,62],[9,2,10,10,10,10,10,10],[4.442812667,1.1,0.6,0.6,0.6,0.6,0.6,0.6]]

>  <FP:PLIF>
1 2 3 4

>  <PLIF_ligidx>
[1,[6,15,13,11,9,7],1,1]

$$$$
