O=c1cc(-c2ccccc2)cc(-c2ccc3[nH]ccc3c2)n1O
  MOE2019           3D

 37 40  0  0  0  0  0  0  0  0999 V2000
   24.2300   -5.1420   -6.2520 O   0  0  0  0  0  0  0  0  0  0  0  0
   24.9150   -4.6450   -5.3730 C   0  0  0  0  0  0  0  0  0  0  0  0
   24.4990   -3.5320   -4.6360 C   0  0  0  0  0  0  0  0  0  0  0  0
   23.5710   -3.1170   -4.9120 H   0  0  0  0  0  0  0  0  0  0  0  0
   25.2590   -2.9980   -3.6380 C   0  0  0  0  0  0  0  0  0  0  0  0
   24.7300   -1.7360   -3.0750 C   0  0  0  0  0  0  0  0  0  0  0  0
   24.7690   -1.4270   -1.7160 C   0  0  0  0  0  0  0  0  0  0  0  0
   25.2890   -2.0650   -1.0570 H   0  0  0  0  0  0  0  0  0  0  0  0
   24.0880   -0.3090   -1.2270 C   0  0  0  0  0  0  0  0  0  0  0  0
   24.0700   -0.0930   -0.1990 H   0  0  0  0  0  0  0  0  0  0  0  0
   23.4190    0.5570   -2.0760 C   0  0  0  0  0  0  0  0  0  0  0  0
   22.9200    1.4080   -1.6880 H   0  0  0  0  0  0  0  0  0  0  0  0
   23.4070    0.2960   -3.4320 C   0  0  0  0  0  0  0  0  0  0  0  0
   22.8990    0.9470   -4.0970 H   0  0  0  0  0  0  0  0  0  0  0  0
   24.0440   -0.8350   -3.9140 C   0  0  0  0  0  0  0  0  0  0  0  0
   23.9680   -1.0220   -4.9420 H   0  0  0  0  0  0  0  0  0  0  0  0
   26.4370   -3.7480   -3.2450 C   0  0  0  0  0  0  0  0  0  0  0  0
   26.9680   -3.4270   -2.3920 H   0  0  0  0  0  0  0  0  0  0  0  0
   26.8490   -4.8940   -3.9390 C   0  0  0  0  0  0  0  0  0  0  0  0
   27.8920   -5.8930   -3.5670 C   0  0  0  0  0  0  0  0  0  0  0  0
   27.7380   -7.2770   -3.9020 C   0  0  0  0  0  0  0  0  0  0  0  0
   26.9000   -7.5880   -4.4570 H   0  0  0  0  0  0  0  0  0  0  0  0
   28.6430   -8.2450   -3.5240 C   0  0  0  0  0  0  0  0  0  0  0  0
   28.5030   -9.2640   -3.7780 H   0  0  0  0  0  0  0  0  0  0  0  0
   29.7520   -7.8360   -2.7910 C   0  0  0  0  0  0  0  0  0  0  0  0
   30.7850   -8.5800   -2.2690 N   0  0  0  0  0  0  0  0  0  0  0  0
   30.9020   -9.6020   -2.3680 H   0  0  0  0  0  0  0  0  0  0  0  0
   31.6390   -7.7420   -1.6000 C   0  0  0  0  0  0  0  0  0  0  0  0
   32.5030   -8.1170   -1.1190 H   0  0  0  0  0  0  0  0  0  0  0  0
   31.1660   -6.4720   -1.7040 C   0  0  0  0  0  0  0  0  0  0  0  0
   31.6180   -5.6100   -1.2940 H   0  0  0  0  0  0  0  0  0  0  0  0
   29.9690   -6.5070   -2.4550 C   0  0  0  0  0  0  0  0  0  0  0  0
   29.0410   -5.5340   -2.8690 C   0  0  0  0  0  0  0  0  0  0  0  0
   29.2230   -4.5300   -2.6540 H   0  0  0  0  0  0  0  0  0  0  0  0
   26.1520   -5.1710   -5.1140 N   0  0  0  0  0  0  0  0  0  0  0  0
   26.7080   -5.9390   -6.1300 O   0  0  0  0  0  0  0  0  0  0  0  0
   27.6810   -5.8240   -6.0720 H   0  0  0  0  0  0  0  0  0  0  0  0
  1  2  2  0  0  0  0
  2  3  1  0  0  0  0
  2 35  1  0  0  0  0
  3  4  1  0  0  0  0
  3  5  2  0  0  0  0
  5  6  1  0  0  0  0
  5 17  1  0  0  0  0
  6  7  1  0  0  0  0
  6 15  2  0  0  0  0
  7  8  1  0  0  0  0
  7  9  2  0  0  0  0
  9 10  1  0  0  0  0
  9 11  1  0  0  0  0
 11 12  1  0  0  0  0
 11 13  2  0  0  0  0
 13 14  1  0  0  0  0
 13 15  1  0  0  0  0
 15 16  1  0  0  0  0
 17 18  1  0  0  0  0
 17 19  2  0  0  0  0
 19 20  1  0  0  0  0
 19 35  1  0  0  0  0
 20 21  1  0  0  0  0
 20 33  2  0  0  0  0
 21 22  1  0  0  0  0
 21 23  2  0  0  0  0
 23 24  1  0  0  0  0
 23 25  1  0  0  0  0
 25 26  1  0  0  0  0
 25 32  2  0  0  0  0
 26 27  1  0  0  0  0
 26 28  1  0  0  0  0
 28 29  1  0  0  0  0
 28 30  2  0  0  0  0
 30 31  1  0  0  0  0
 30 32  1  0  0  0  0
 32 33  1  0  0  0  0
 33 34  1  0  0  0  0
 35 36  1  0  0  0  0
 36 37  1  0  0  0  0
M  END
>  <rseq>
1

>  <mseq>
8

>  <S>
-7.5210056

>  <rmsd_refine>
0.95819652

>  <E_conf>
79.113129

>  <E_place>
-64.854202

>  <E_score1>
-12.587354

>  <E_refine>
-47.076748

>  <E_score2>
-7.5210056

>  <Standard ValuenM>
250

>  <PLIF_pronum>
1

>  <PLIF_raw>
[[1,25,32,30,28,26],[5555,5533,5533,5533,5533,5533],[20201,10182,10182,10182,10182,10182],[9,10,10,10,10,10],[3.515977446,0.5,0.5,0.5,0.5,0.5]]

>  <FP:PLIF>
34 3 4

>  <PLIF_ligidx>
[[25,32,30,28,26],1,1]

$$$$
