COCCn1ccc2cc(-c3cc(-c4ccccc4)cc(=O)n3O)ccc21
  MOE2019           3D

 47 50  0  0  0  0  0  0  0  0999 V2000
   23.1090    3.0250   -5.5330 C   0  0  0  0  0  0  0  0  0  0  0  0
   23.7520    3.8850   -5.7180 H   0  0  0  0  0  0  0  0  0  0  0  0
   22.0740    3.3610   -5.4970 H   0  0  0  0  0  0  0  0  0  0  0  0
   23.2340    2.3060   -6.3430 H   0  0  0  0  0  0  0  0  0  0  0  0
   23.4700    2.4440   -4.2940 O   0  0  0  0  0  0  0  0  0  0  0  0
   22.7920    1.2230   -4.0400 C   0  0  0  0  0  0  0  0  0  0  0  0
   23.0570    0.4660   -4.7810 H   0  0  0  0  0  0  0  0  0  0  0  0
   21.7140    1.3810   -4.0550 H   0  0  0  0  0  0  0  0  0  0  0  0
   23.2340    0.7890   -2.6290 C   0  0  0  0  0  0  0  0  0  0  0  0
   22.5670    0.0150   -2.2770 H   0  0  0  0  0  0  0  0  0  0  0  0
   23.2610    1.6490   -1.9740 H   0  0  0  0  0  0  0  0  0  0  0  0
   24.5800    0.2370   -2.7780 N   0  0  0  0  0  0  0  0  0  0  0  0
   25.7490    0.9690   -2.8290 C   0  0  0  0  0  0  0  0  0  0  0  0
   25.7540    2.0170   -2.6680 H   0  0  0  0  0  0  0  0  0  0  0  0
   26.7750    0.1290   -3.1150 C   0  0  0  0  0  0  0  0  0  0  0  0
   27.7920    0.4070   -3.2120 H   0  0  0  0  0  0  0  0  0  0  0  0
   26.2460   -1.1730   -3.2680 C   0  0  0  0  0  0  0  0  0  0  0  0
   26.7960   -2.4100   -3.6290 C   0  0  0  0  0  0  0  0  0  0  0  0
   27.8180   -2.4740   -3.8930 H   0  0  0  0  0  0  0  0  0  0  0  0
   25.9930   -3.5480   -3.6640 C   0  0  0  0  0  0  0  0  0  0  0  0
   26.5990   -4.8190   -4.0380 C   0  0  0  0  0  0  0  0  0  0  0  0
   27.6230   -5.4090   -3.3360 C   0  0  0  0  0  0  0  0  0  0  0  0
   27.9340   -4.9820   -2.4210 H   0  0  0  0  0  0  0  0  0  0  0  0
   28.2940   -6.5710   -3.8130 C   0  0  0  0  0  0  0  0  0  0  0  0
   29.3970   -7.1600   -3.0530 C   0  0  0  0  0  0  0  0  0  0  0  0
   30.2820   -6.3460   -2.3330 C   0  0  0  0  0  0  0  0  0  0  0  0
   30.1600   -5.2940   -2.3320 H   0  0  0  0  0  0  0  0  0  0  0  0
   31.3390   -6.9010   -1.6260 C   0  0  0  0  0  0  0  0  0  0  0  0
   31.9960   -6.2720   -1.0860 H   0  0  0  0  0  0  0  0  0  0  0  0
   31.5430   -8.2760   -1.6360 C   0  0  0  0  0  0  0  0  0  0  0  0
   32.3560   -8.6960   -1.1030 H   0  0  0  0  0  0  0  0  0  0  0  0
   30.6760   -9.0980   -2.3460 C   0  0  0  0  0  0  0  0  0  0  0  0
   30.8340  -10.1460   -2.3560 H   0  0  0  0  0  0  0  0  0  0  0  0
   29.6040   -8.5480   -3.0400 C   0  0  0  0  0  0  0  0  0  0  0  0
   28.9440   -9.1890   -3.5640 H   0  0  0  0  0  0  0  0  0  0  0  0
   27.8960   -7.1030   -5.0140 C   0  0  0  0  0  0  0  0  0  0  0  0
   28.3930   -7.9390   -5.4280 H   0  0  0  0  0  0  0  0  0  0  0  0
   26.8120   -6.5530   -5.7520 C   0  0  0  0  0  0  0  0  0  0  0  0
   26.4170   -6.9940   -6.8470 O   0  0  0  0  0  0  0  0  0  0  0  0
   26.1630   -5.4510   -5.2020 N   0  0  0  0  0  0  0  0  0  0  0  0
   25.0280   -4.9700   -5.8410 O   0  0  0  0  0  0  0  0  0  0  0  0
   24.7610   -4.1740   -5.3360 H   0  0  0  0  0  0  0  0  0  0  0  0
   24.6130   -3.4450   -3.3350 C   0  0  0  0  0  0  0  0  0  0  0  0
   24.0100   -4.3170   -3.3300 H   0  0  0  0  0  0  0  0  0  0  0  0
   24.0530   -2.2220   -3.0180 C   0  0  0  0  0  0  0  0  0  0  0  0
   23.0300   -2.1380   -2.7630 H   0  0  0  0  0  0  0  0  0  0  0  0
   24.8820   -1.0940   -3.0140 C   0  0  0  0  0  0  0  0  0  0  0  0
  1  2  1  0  0  0  0
  1  3  1  0  0  0  0
  1  4  1  0  0  0  0
  1  5  1  0  0  0  0
  5  6  1  0  0  0  0
  6  7  1  0  0  0  0
  6  8  1  0  0  0  0
  6  9  1  0  0  0  0
  9 10  1  0  0  0  0
  9 11  1  0  0  0  0
  9 12  1  0  0  0  0
 12 13  1  0  0  0  0
 12 47  1  0  0  0  0
 13 14  1  0  0  0  0
 13 15  2  0  0  0  0
 15 16  1  0  0  0  0
 15 17  1  0  0  0  0
 17 18  1  0  0  0  0
 17 47  2  0  0  0  0
 18 19  1  0  0  0  0
 18 20  2  0  0  0  0
 20 21  1  0  0  0  0
 20 43  1  0  0  0  0
 21 22  2  0  0  0  0
 21 40  1  0  0  0  0
 22 23  1  0  0  0  0
 22 24  1  0  0  0  0
 24 25  1  0  0  0  0
 24 36  2  0  0  0  0
 25 26  1  0  0  0  0
 25 34  2  0  0  0  0
 26 27  1  0  0  0  0
 26 28  2  0  0  0  0
 28 29  1  0  0  0  0
 28 30  1  0  0  0  0
 30 31  1  0  0  0  0
 30 32  2  0  0  0  0
 32 33  1  0  0  0  0
 32 34  1  0  0  0  0
 34 35  1  0  0  0  0
 36 37  1  0  0  0  0
 36 38  1  0  0  0  0
 38 39  2  0  0  0  0
 38 40  1  0  0  0  0
 40 41  1  0  0  0  0
 41 42  1  0  0  0  0
 43 44  1  0  0  0  0
 43 45  2  0  0  0  0
 45 46  1  0  0  0  0
 45 47  1  0  0  0  0
M  END
>  <rseq>
1

>  <mseq>
9

>  <S>
-10.374259

>  <rmsd_refine>
0.96609527

>  <E_conf>
67.164627

>  <E_place>
-107.92338

>  <E_score1>
-13.580216

>  <E_refine>
-78.69883

>  <E_score2>
-10.374259

>  <Standard ValuenM>
260

>  <PLIF_pronum>
1

>  <PLIF_raw>
[[39,39,25,34,32,30,28,26,12,47,17,15,13],[5555,355,852,852,852,852,852,852,6565,6565,6565,6565,6565],[20201,33,62,62,62,62,62,62,221061,221061,221061,221061,221061],[9,2,10,10,10,10,10,10,10,10,10,10,10],[4.368389153,1.5,0.6,0.6,0.6,0.6,0.6,0.6,0.5,0.5,0.5,0.5,0.5]]

>  <FP:PLIF>
1 9 2 3 4 6

>  <PLIF_ligidx>
[39,39,[25,34,32,30,28,26],39,39,[12,47,17,15,13]]

$$$$
