COCCn1ccc2cc(-c3cc(-c4ccccc4)cc(=O)n3O)ccc21
  MOE2019           3D

 47 50  0  0  0  0  0  0  0  0999 V2000
   25.0060    4.7490   -2.7460 C   0  0  0  0  0  0  0  0  0  0  0  0
   25.6480    5.6290   -2.7000 H   0  0  0  0  0  0  0  0  0  0  0  0
   23.9850    5.0480   -2.5080 H   0  0  0  0  0  0  0  0  0  0  0  0
   25.0400    4.3440   -3.7570 H   0  0  0  0  0  0  0  0  0  0  0  0
   25.4660    3.7910   -1.8030 O   0  0  0  0  0  0  0  0  0  0  0  0
   24.6920    2.5990   -1.7610 C   0  0  0  0  0  0  0  0  0  0  0  0
   23.6290    2.8150   -1.8820 H   0  0  0  0  0  0  0  0  0  0  0  0
   24.8530    2.1100   -0.8010 H   0  0  0  0  0  0  0  0  0  0  0  0
   25.2150    1.6940   -2.8940 C   0  0  0  0  0  0  0  0  0  0  0  0
   26.2900    1.6330   -2.8050 H   0  0  0  0  0  0  0  0  0  0  0  0
   24.8960    2.0900   -3.8480 H   0  0  0  0  0  0  0  0  0  0  0  0
   24.6390    0.3530   -2.7210 N   0  0  0  0  0  0  0  0  0  0  0  0
   23.3420    0.0480   -2.3530 C   0  0  0  0  0  0  0  0  0  0  0  0
   22.6450    0.7950   -2.0740 H   0  0  0  0  0  0  0  0  0  0  0  0
   23.1750   -1.2960   -2.4270 C   0  0  0  0  0  0  0  0  0  0  0  0
   22.2860   -1.8130   -2.1870 H   0  0  0  0  0  0  0  0  0  0  0  0
   24.3820   -1.8760   -2.8770 C   0  0  0  0  0  0  0  0  0  0  0  0
   24.7810   -3.1930   -3.1840 C   0  0  0  0  0  0  0  0  0  0  0  0
   24.0970   -3.9950   -3.0740 H   0  0  0  0  0  0  0  0  0  0  0  0
   26.0820   -3.4270   -3.6330 C   0  0  0  0  0  0  0  0  0  0  0  0
   26.5950   -4.7490   -3.9760 C   0  0  0  0  0  0  0  0  0  0  0  0
   27.5920   -5.3790   -3.2680 C   0  0  0  0  0  0  0  0  0  0  0  0
   27.9110   -4.9690   -2.3500 H   0  0  0  0  0  0  0  0  0  0  0  0
   28.2460   -6.5460   -3.7550 C   0  0  0  0  0  0  0  0  0  0  0  0
   29.3580   -7.1470   -3.0170 C   0  0  0  0  0  0  0  0  0  0  0  0
   30.2600   -6.3400   -2.3090 C   0  0  0  0  0  0  0  0  0  0  0  0
   30.1410   -5.2880   -2.2990 H   0  0  0  0  0  0  0  0  0  0  0  0
   31.3300   -6.9030   -1.6280 C   0  0  0  0  0  0  0  0  0  0  0  0
   31.9990   -6.2800   -1.0970 H   0  0  0  0  0  0  0  0  0  0  0  0
   31.5290   -8.2790   -1.6530 C   0  0  0  0  0  0  0  0  0  0  0  0
   32.3520   -8.7050   -1.1390 H   0  0  0  0  0  0  0  0  0  0  0  0
   30.6460   -9.0930   -2.3510 C   0  0  0  0  0  0  0  0  0  0  0  0
   30.8010  -10.1410   -2.3730 H   0  0  0  0  0  0  0  0  0  0  0  0
   29.5620   -8.5350   -3.0190 C   0  0  0  0  0  0  0  0  0  0  0  0
   28.8910   -9.1700   -3.5360 H   0  0  0  0  0  0  0  0  0  0  0  0
   27.8380   -7.0640   -4.9580 C   0  0  0  0  0  0  0  0  0  0  0  0
   28.3240   -7.9030   -5.3810 H   0  0  0  0  0  0  0  0  0  0  0  0
   26.7630   -6.4880   -5.6890 C   0  0  0  0  0  0  0  0  0  0  0  0
   26.3620   -6.9220   -6.7840 O   0  0  0  0  0  0  0  0  0  0  0  0
   26.1390   -5.3690   -5.1380 N   0  0  0  0  0  0  0  0  0  0  0  0
   25.0210   -4.8520   -5.7780 O   0  0  0  0  0  0  0  0  0  0  0  0
   24.7770   -4.0470   -5.2750 H   0  0  0  0  0  0  0  0  0  0  0  0
   26.9820   -2.3390   -3.7590 C   0  0  0  0  0  0  0  0  0  0  0  0
   27.9620   -2.5310   -4.1060 H   0  0  0  0  0  0  0  0  0  0  0  0
   26.6080   -1.0490   -3.4480 C   0  0  0  0  0  0  0  0  0  0  0  0
   27.2930   -0.2470   -3.5340 H   0  0  0  0  0  0  0  0  0  0  0  0
   25.2910   -0.8330   -3.0300 C   0  0  0  0  0  0  0  0  0  0  0  0
  1  2  1  0  0  0  0
  1  3  1  0  0  0  0
  1  4  1  0  0  0  0
  1  5  1  0  0  0  0
  5  6  1  0  0  0  0
  6  7  1  0  0  0  0
  6  8  1  0  0  0  0
  6  9  1  0  0  0  0
  9 10  1  0  0  0  0
  9 11  1  0  0  0  0
  9 12  1  0  0  0  0
 12 13  1  0  0  0  0
 12 47  1  0  0  0  0
 13 14  1  0  0  0  0
 13 15  2  0  0  0  0
 15 16  1  0  0  0  0
 15 17  1  0  0  0  0
 17 18  1  0  0  0  0
 17 47  2  0  0  0  0
 18 19  1  0  0  0  0
 18 20  2  0  0  0  0
 20 21  1  0  0  0  0
 20 43  1  0  0  0  0
 21 22  2  0  0  0  0
 21 40  1  0  0  0  0
 22 23  1  0  0  0  0
 22 24  1  0  0  0  0
 24 25  1  0  0  0  0
 24 36  2  0  0  0  0
 25 26  1  0  0  0  0
 25 34  2  0  0  0  0
 26 27  1  0  0  0  0
 26 28  2  0  0  0  0
 28 29  1  0  0  0  0
 28 30  1  0  0  0  0
 30 31  1  0  0  0  0
 30 32  2  0  0  0  0
 32 33  1  0  0  0  0
 32 34  1  0  0  0  0
 34 35  1  0  0  0  0
 36 37  1  0  0  0  0
 36 38  1  0  0  0  0
 38 39  2  0  0  0  0
 38 40  1  0  0  0  0
 40 41  1  0  0  0  0
 41 42  1  0  0  0  0
 43 44  1  0  0  0  0
 43 45  2  0  0  0  0
 45 46  1  0  0  0  0
 45 47  1  0  0  0  0
M  END
>  <rseq>
1

>  <mseq>
9

>  <S>
-10.102313

>  <rmsd_refine>
1.6912405

>  <E_conf>
69.97834

>  <E_place>
-63.13755

>  <E_score1>
-12.979014

>  <E_refine>
-75.017845

>  <E_score2>
-10.102313

>  <Standard ValuenM>
260

>  <PLIF_pronum>
1

>  <PLIF_raw>
[[39,39,25,34,32,30,28,26],[5555,355,852,852,852,852,852,852],[20201,33,62,62,62,62,62,62],[9,2,10,10,10,10,10,10],[4.447384184,1.1,0.5,0.5,0.5,0.5,0.5,0.5]]

>  <FP:PLIF>
1 2 3 4

>  <PLIF_ligidx>
[39,[25,34,32,30,28,26],39,39]

$$$$
