COCCn1ccc2cc(-c3cc(-c4ccccc4)cc(=O)n3O)ccc21
  MOE2019           3D

 47 50  0  0  0  0  0  0  0  0999 V2000
   22.6120    0.4010   -4.7710 C   0  0  0  0  0  0  0  0  0  0  0  0
   22.3350   -0.3270   -5.5340 H   0  0  0  0  0  0  0  0  0  0  0  0
   23.6890    0.5540   -4.8000 H   0  0  0  0  0  0  0  0  0  0  0  0
   22.1140    1.3470   -4.9800 H   0  0  0  0  0  0  0  0  0  0  0  0
   22.2240   -0.0790   -3.4940 O   0  0  0  0  0  0  0  0  0  0  0  0
   22.5060    0.8390   -2.4470 C   0  0  0  0  0  0  0  0  0  0  0  0
   21.6210    0.9210   -1.8220 H   0  0  0  0  0  0  0  0  0  0  0  0
   22.8090    1.8160   -2.8260 H   0  0  0  0  0  0  0  0  0  0  0  0
   23.5980    0.2680   -1.5460 C   0  0  0  0  0  0  0  0  0  0  0  0
   23.2340   -0.6420   -1.0880 H   0  0  0  0  0  0  0  0  0  0  0  0
   23.8650    1.0160   -0.8130 H   0  0  0  0  0  0  0  0  0  0  0  0
   24.7530   -0.0290   -2.3750 N   0  0  0  0  0  0  0  0  0  0  0  0
   25.8330    0.7930   -2.6120 C   0  0  0  0  0  0  0  0  0  0  0  0
   25.8270    1.8170   -2.3390 H   0  0  0  0  0  0  0  0  0  0  0  0
   26.8270    0.0430   -3.1520 C   0  0  0  0  0  0  0  0  0  0  0  0
   27.7960    0.3940   -3.3860 H   0  0  0  0  0  0  0  0  0  0  0  0
   26.3460   -1.2780   -3.3090 C   0  0  0  0  0  0  0  0  0  0  0  0
   26.8950   -2.4840   -3.7650 C   0  0  0  0  0  0  0  0  0  0  0  0
   27.8950   -2.5160   -4.1050 H   0  0  0  0  0  0  0  0  0  0  0  0
   26.1230   -3.6450   -3.7530 C   0  0  0  0  0  0  0  0  0  0  0  0
   26.7270   -4.9050   -4.1350 C   0  0  0  0  0  0  0  0  0  0  0  0
   27.7540   -5.4890   -3.4370 C   0  0  0  0  0  0  0  0  0  0  0  0
   28.0850   -5.0420   -2.5380 H   0  0  0  0  0  0  0  0  0  0  0  0
   28.3850   -6.6780   -3.8940 C   0  0  0  0  0  0  0  0  0  0  0  0
   29.4690   -7.2810   -3.1150 C   0  0  0  0  0  0  0  0  0  0  0  0
   30.3500   -6.4740   -2.3810 C   0  0  0  0  0  0  0  0  0  0  0  0
   30.2460   -5.4200   -2.3890 H   0  0  0  0  0  0  0  0  0  0  0  0
   31.3820   -7.0370   -1.6460 C   0  0  0  0  0  0  0  0  0  0  0  0
   32.0330   -6.4110   -1.0950 H   0  0  0  0  0  0  0  0  0  0  0  0
   31.5690   -8.4140   -1.6430 C   0  0  0  0  0  0  0  0  0  0  0  0
   32.3650   -8.8410   -1.0890 H   0  0  0  0  0  0  0  0  0  0  0  0
   30.7070   -9.2300   -2.3670 C   0  0  0  0  0  0  0  0  0  0  0  0
   30.8510  -10.2790   -2.3670 H   0  0  0  0  0  0  0  0  0  0  0  0
   29.6570   -8.6700   -3.0860 C   0  0  0  0  0  0  0  0  0  0  0  0
   28.9980   -9.3070   -3.6180 H   0  0  0  0  0  0  0  0  0  0  0  0
   27.9590   -7.2210   -5.0810 C   0  0  0  0  0  0  0  0  0  0  0  0
   28.4190   -8.0800   -5.4840 H   0  0  0  0  0  0  0  0  0  0  0  0
   26.8810   -6.6570   -5.8200 C   0  0  0  0  0  0  0  0  0  0  0  0
   26.4650   -7.0950   -6.9090 O   0  0  0  0  0  0  0  0  0  0  0  0
   26.2550   -5.5460   -5.2730 N   0  0  0  0  0  0  0  0  0  0  0  0
   25.0930   -5.0760   -5.8700 O   0  0  0  0  0  0  0  0  0  0  0  0
   24.8260   -4.2950   -5.3420 H   0  0  0  0  0  0  0  0  0  0  0  0
   24.7650   -3.5960   -3.3430 C   0  0  0  0  0  0  0  0  0  0  0  0
   24.1750   -4.4760   -3.3610 H   0  0  0  0  0  0  0  0  0  0  0  0
   24.2110   -2.4130   -2.9150 C   0  0  0  0  0  0  0  0  0  0  0  0
   23.1950   -2.3580   -2.6250 H   0  0  0  0  0  0  0  0  0  0  0  0
   25.0330   -1.2840   -2.8610 C   0  0  0  0  0  0  0  0  0  0  0  0
  1  2  1  0  0  0  0
  1  3  1  0  0  0  0
  1  4  1  0  0  0  0
  1  5  1  0  0  0  0
  5  6  1  0  0  0  0
  6  7  1  0  0  0  0
  6  8  1  0  0  0  0
  6  9  1  0  0  0  0
  9 10  1  0  0  0  0
  9 11  1  0  0  0  0
  9 12  1  0  0  0  0
 12 13  1  0  0  0  0
 12 47  1  0  0  0  0
 13 14  1  0  0  0  0
 13 15  2  0  0  0  0
 15 16  1  0  0  0  0
 15 17  1  0  0  0  0
 17 18  1  0  0  0  0
 17 47  2  0  0  0  0
 18 19  1  0  0  0  0
 18 20  2  0  0  0  0
 20 21  1  0  0  0  0
 20 43  1  0  0  0  0
 21 22  2  0  0  0  0
 21 40  1  0  0  0  0
 22 23  1  0  0  0  0
 22 24  1  0  0  0  0
 24 25  1  0  0  0  0
 24 36  2  0  0  0  0
 25 26  1  0  0  0  0
 25 34  2  0  0  0  0
 26 27  1  0  0  0  0
 26 28  2  0  0  0  0
 28 29  1  0  0  0  0
 28 30  1  0  0  0  0
 30 31  1  0  0  0  0
 30 32  2  0  0  0  0
 32 33  1  0  0  0  0
 32 34  1  0  0  0  0
 34 35  1  0  0  0  0
 36 37  1  0  0  0  0
 36 38  1  0  0  0  0
 38 39  2  0  0  0  0
 38 40  1  0  0  0  0
 40 41  1  0  0  0  0
 41 42  1  0  0  0  0
 43 44  1  0  0  0  0
 43 45  2  0  0  0  0
 45 46  1  0  0  0  0
 45 47  1  0  0  0  0
M  END
>  <rseq>
1

>  <mseq>
9

>  <S>
-9.7696352

>  <rmsd_refine>
0.81491005

>  <E_conf>
72.229156

>  <E_place>
-103.92027

>  <E_score1>
-18.818449

>  <E_refine>
-69.426506

>  <E_score2>
-9.7696352

>  <Standard ValuenM>
260

>  <PLIF_pronum>
1

>  <PLIF_raw>
[[39,39,25,34,32,30,28,26],[5555,355,852,852,852,852,852,852],[20201,33,62,62,62,62,62,62],[9,2,10,10,10,10,10,10],[4.218181951,1.8,0.8,0.8,0.8,0.8,0.8,0.8]]

>  <FP:PLIF>
1 9 2 3 4

>  <PLIF_ligidx>
[39,39,[25,34,32,30,28,26],39,39]

$$$$
